<?xml version="1.0" encoding="UTF-8"?>

<!-- generated on 03/03/20 16:28:22 by Eclipse SUMO duarouter Version 1.3.1
<configuration xmlns:xsi="http://www.w3.org/2001/XMLSchema-instance" xsi:noNamespaceSchemaLocation="http://sumo.dlr.de/xsd/duarouterConfiguration.xsd">

    <input>
        <net-file value="pecs_belvaros_cut.net.xml"/>
        <route-files value="pecs_belvaros_cut.passenger.trips.xml"/>
    </input>

    <output>
        <output-file value="routes.rou.xml"/>
        <alternatives-output value="routes.rou.alt.xml"/>
    </output>

    <time>
        <begin value="0"/>
        <end value="3600.0"/>
    </time>

    <report>
        <no-warnings value="true"/>
        <ignore-errors value="true"/>
        <no-step-log value="true"/>
    </report>

</configuration>
-->

<routes xmlns:xsi="http://www.w3.org/2001/XMLSchema-instance" xsi:noNamespaceSchemaLocation="http://sumo.dlr.de/xsd/routes_file.xsd">
    <vType id="passenger" vClass="passenger"/>
    <vehicle id="0" type="passenger" depart="0.00" departLane="best">
        <route edges="gneE13 41714395#1 gneE10 -261073253#2 -261073253#1"/>
    </vehicle>
    <vehicle id="1" type="passenger" depart="1.04" departLane="best">
        <route edges="gneE4 -518338221#2 -261073253#6 gneE11 453279793 gneE1"/>
    </vehicle>
    <vehicle id="2" type="passenger" depart="2.08" departLane="best" departSpeed="max">
        <route edges="gneE8 gneE12 -261073253#6"/>
    </vehicle>
    <vehicle id="3" type="passenger" depart="3.11" departLane="best">
        <route edges="-707843640#1 gneE10 261073253#4 518338236#1"/>
    </vehicle>
    <vehicle id="4" type="passenger" depart="4.15" departLane="best">
        <route edges="gneE13 41714395#1 gneE10 261073253#4 518338236#1"/>
    </vehicle>
    <vehicle id="5" type="passenger" depart="5.19" departLane="best">
        <route edges="-707843640#1 gneE10 261073253#4 518338236#1"/>
    </vehicle>
    <vehicle id="6" type="passenger" depart="6.23" departLane="best" departSpeed="max">
        <route edges="gneE8 gneE12 -261073253#6 -261073253#2 -261073253#1"/>
    </vehicle>
    <vehicle id="7" type="passenger" depart="7.27" departLane="best" departSpeed="max">
        <route edges="gneE8 41714395#1 453279793 gneE1"/>
    </vehicle>
    <vehicle id="8" type="passenger" depart="8.30" departLane="best" departSpeed="max">
        <route edges="gneE8 41714395#1 gneE10 261073253#4"/>
    </vehicle>
    <vehicle id="9" type="passenger" depart="9.34" departLane="best" departSpeed="max">
        <route edges="gneE8 41714395#1 gneE10"/>
    </vehicle>
    <vehicle id="10" type="passenger" depart="10.38" departLane="best">
        <route edges="gneE10 261073253#4 gneE13 gneE6"/>
    </vehicle>
    <vehicle id="11" type="passenger" depart="11.42" departLane="best">
        <route edges="41714395#1 gneE10 261073253#4 518338236#1"/>
    </vehicle>
    <vehicle id="12" type="passenger" depart="12.46" departLane="best">
        <route edges="gneE4 -518338221#2 -261073253#6 -261073253#2"/>
    </vehicle>
    <vehicle id="13" type="passenger" depart="13.49" departLane="best">
        <route edges="261073253#0 261073253#2 261073253#4 gneE13 gneE6 gneE4"/>
    </vehicle>
    <vehicle id="14" type="passenger" depart="14.53" departLane="best">
        <route edges="gneE13 41714395#1 gneE10 261073253#4 518338236#1"/>
    </vehicle>
    <vehicle id="15" type="passenger" depart="15.57" departLane="best">
        <route edges="-518338221#2 gneE13 41714395#1 gneE10"/>
    </vehicle>
    <vehicle id="16" type="passenger" depart="16.61" departLane="best">
        <route edges="-518338221#2 gneE13 41714395#1"/>
    </vehicle>
    <vehicle id="17" type="passenger" depart="17.65" departLane="best">
        <route edges="gneE9 -707843640#1 gneE10 261073253#4 518338236#1"/>
    </vehicle>
    <vehicle id="18" type="passenger" depart="18.68" departLane="best" departSpeed="max">
        <route edges="gneE8 gneE12 -261073253#6 gneE11"/>
    </vehicle>
    <vehicle id="19" type="passenger" depart="19.72" departLane="best">
        <route edges="-707843640#1 -41714395#3 gneE6"/>
    </vehicle>
    <vehicle id="20" type="passenger" depart="20.76" departLane="best" departSpeed="max">
        <route edges="gneE8 gneE12 -261073253#6 -261073253#2 261073253#2"/>
    </vehicle>
    <vehicle id="21" type="passenger" depart="21.80" departLane="best" departSpeed="max">
        <route edges="gneE8 41714395#1 453279793"/>
    </vehicle>
    <vehicle id="22" type="passenger" depart="22.84" departLane="best">
        <route edges="gneE12 -261073253#6 261073253#4 gneE13 gneE6 gneE4"/>
    </vehicle>
    <vehicle id="23" type="passenger" depart="23.87" departLane="best">
        <route edges="gneE9 -707843640#1 gneE10 261073253#4 518338236#1"/>
    </vehicle>
    <vehicle id="24" type="passenger" depart="24.91" departLane="best">
        <route edges="-261073253#6 261073253#4 518338236#1"/>
    </vehicle>
    <vehicle id="25" type="passenger" depart="25.95" departLane="best" departSpeed="max">
        <route edges="gneE8 41714395#1 453279793"/>
    </vehicle>
    <vehicle id="26" type="passenger" depart="26.99" departLane="best">
        <route edges="gneE9 -707843640#1 gneE10 261073253#4 518338236#1"/>
    </vehicle>
    <vehicle id="27" type="passenger" depart="28.03" departLane="best">
        <route edges="261073253#0 261073253#2 261073253#4 518338236#1"/>
    </vehicle>
    <vehicle id="28" type="passenger" depart="29.06" departLane="best">
        <route edges="-261073253#6 gneE11 453279793"/>
    </vehicle>
    <vehicle id="29" type="passenger" depart="30.10" departLane="best">
        <route edges="453279793 -707843640#1 -41714395#3 gneE6"/>
    </vehicle>
    <vehicle id="30" type="passenger" depart="31.14" departLane="best" departSpeed="max">
        <route edges="gneE8 41714395#1 453279793 gneE1 261073253#0"/>
    </vehicle>
    <vehicle id="31" type="passenger" depart="32.18" departLane="best">
        <route edges="261073253#2 261073253#4 518338236#1"/>
    </vehicle>
    <vehicle id="32" type="passenger" depart="33.22" departLane="best">
        <route edges="gneE6 gneE4 -518338221#2 518338236#1"/>
    </vehicle>
    <vehicle id="33" type="passenger" depart="34.25" departLane="best">
        <route edges="gneE6 gneE4 -518338221#2 518338236#1"/>
    </vehicle>
    <vehicle id="34" type="passenger" depart="35.29" departLane="best">
        <route edges="-261073253#1 gneE9 -707843640#1 -41714395#3 gneE6 gneE4"/>
    </vehicle>
    <vehicle id="35" type="passenger" depart="36.33" departLane="best" departSpeed="max">
        <route edges="gneE8 41714395#1 gneE10 261073253#4 gneE13"/>
    </vehicle>
    <vehicle id="36" type="passenger" depart="37.37" departLane="best">
        <route edges="-261073253#6 261073253#4 518338236#1"/>
    </vehicle>
    <vehicle id="37" type="passenger" depart="38.41" departLane="best">
        <route edges="gneE1 261073253#0 261073253#2 261073253#4 518338236#1"/>
    </vehicle>
    <vehicle id="38" type="passenger" depart="39.44" departLane="best">
        <route edges="261073253#0 261073253#2 261073253#4 gneE13 gneE6 gneE4"/>
    </vehicle>
    <vehicle id="39" type="passenger" depart="40.48" departLane="best">
        <route edges="gneE9 -707843640#1 gneE10 261073253#4 518338236#1"/>
    </vehicle>
    <vehicle id="40" type="passenger" depart="41.52" departLane="best">
        <route edges="453279793 gneE1 261073253#0 261073253#2 261073253#4 518338236#1"/>
    </vehicle>
    <vehicle id="41" type="passenger" depart="42.56" departLane="best">
        <route edges="261073253#4 518338236#1"/>
    </vehicle>
    <vehicle id="42" type="passenger" depart="43.60" departLane="best">
        <route edges="-261073253#2 261073253#2 261073253#4 518338236#1"/>
    </vehicle>
    <vehicle id="43" type="passenger" depart="44.63" departLane="best">
        <route edges="-707843640#1 -41714395#3 gneE6 gneE4"/>
    </vehicle>
    <vehicle id="44" type="passenger" depart="45.67" departLane="best" departSpeed="max">
        <route edges="gneE8 gneE12 -261073253#6 -261073253#2"/>
    </vehicle>
    <vehicle id="45" type="passenger" depart="46.71" departLane="best">
        <route edges="-707843640#1 -41714395#3"/>
    </vehicle>
    <vehicle id="46" type="passenger" depart="47.75" departLane="best">
        <route edges="gneE1 261073253#0 261073253#2 gneE11 -41714395#3 gneE12"/>
    </vehicle>
    <vehicle id="47" type="passenger" depart="48.79" departLane="best" departSpeed="max">
        <route edges="gneE8 gneE12 518338236#1 -518338221#2"/>
    </vehicle>
    <vehicle id="48" type="passenger" depart="49.82" departLane="best">
        <route edges="-261073253#6 gneE11 453279793"/>
    </vehicle>
    <vehicle id="49" type="passenger" depart="50.86" departLane="best">
        <route edges="453279793 gneE1 261073253#0 261073253#2 261073253#4 518338236#1"/>
    </vehicle>
    <vehicle id="50" type="passenger" depart="51.90" departLane="best">
        <route edges="gneE4 -518338221#2 -261073253#6 gneE11 453279793 gneE1"/>
    </vehicle>
    <vehicle id="51" type="passenger" depart="52.94" departLane="best" departSpeed="max">
        <route edges="gneE8 41714395#1 453279793 gneE1 261073253#0"/>
    </vehicle>
    <vehicle id="52" type="passenger" depart="53.98" departLane="best">
        <route edges="-518338221#2 -261073253#6 gneE11 453279793"/>
    </vehicle>
    <vehicle id="53" type="passenger" depart="55.01" departLane="best">
        <route edges="261073253#0 261073253#2 261073253#4 gneE13 gneE6 gneE4"/>
    </vehicle>
    <vehicle id="54" type="passenger" depart="56.05" departLane="best">
        <route edges="453279793 -707843640#1 -41714395#3 gneE6 gneE4"/>
    </vehicle>
    <vehicle id="55" type="passenger" depart="57.09" departLane="best">
        <route edges="gneE9 -707843640#1 gneE10 261073253#4 gneE13"/>
    </vehicle>
    <vehicle id="56" type="passenger" depart="58.13" departLane="best" departSpeed="max">
        <route edges="gneE8 gneE12 518338236#1 -518338221#2"/>
    </vehicle>
    <vehicle id="57" type="passenger" depart="59.17" departLane="best">
        <route edges="41714395#1 gneE10 -261073253#2 -261073253#1 gneE9"/>
    </vehicle>
    <vehicle id="58" type="passenger" depart="60.20" departLane="best">
        <route edges="261073253#0 261073253#2 gneE11 -41714395#3 gneE12"/>
    </vehicle>
    <vehicle id="59" type="passenger" depart="61.24" departLane="best" departSpeed="max">
        <route edges="gneE8 gneE12 -261073253#6 -261073253#2 -261073253#1 gneE9"/>
    </vehicle>
    <vehicle id="60" type="passenger" depart="62.28" departLane="best">
        <route edges="-261073253#2 261073253#2 261073253#4 518338236#1"/>
    </vehicle>
    <vehicle id="61" type="passenger" depart="63.32" departLane="best">
        <route edges="-41714395#3 gneE6"/>
    </vehicle>
    <vehicle id="62" type="passenger" depart="64.36" departLane="best">
        <route edges="gneE12 -261073253#6 gneE11 453279793 gneE1"/>
    </vehicle>
    <vehicle id="63" type="passenger" depart="65.39" departLane="best" departSpeed="max">
        <route edges="gneE8 41714395#1 453279793 gneE1 261073253#0"/>
    </vehicle>
    <vehicle id="64" type="passenger" depart="66.43" departLane="best">
        <route edges="gneE12 518338236#1"/>
    </vehicle>
    <vehicle id="65" type="passenger" depart="67.47" departLane="best">
        <route edges="453279793 gneE1 261073253#0 261073253#2 261073253#4 518338236#1"/>
    </vehicle>
    <vehicle id="66" type="passenger" depart="68.51" departLane="best">
        <route edges="gneE10 261073253#4 gneE13 gneE6 gneE4"/>
    </vehicle>
    <vehicle id="67" type="passenger" depart="69.55" departLane="best">
        <route edges="gneE4 -518338221#2 -261073253#6 -261073253#2 261073253#2"/>
    </vehicle>
    <vehicle id="68" type="passenger" depart="70.58" departLane="best">
        <route edges="261073253#0 261073253#2 261073253#4 gneE13 gneE6 gneE4"/>
    </vehicle>
    <vehicle id="69" type="passenger" depart="71.62" departLane="best" departSpeed="max">
        <route edges="gneE8 41714395#1 gneE10"/>
    </vehicle>
    <vehicle id="70" type="passenger" depart="72.66" departLane="best">
        <route edges="gneE12 -261073253#6 -261073253#2 -261073253#1 gneE9"/>
    </vehicle>
    <vehicle id="71" type="passenger" depart="73.70" departLane="best">
        <route edges="gneE13 41714395#1 gneE10 -261073253#2 -261073253#1"/>
    </vehicle>
    <vehicle id="72" type="passenger" depart="74.74" departLane="best" departSpeed="max">
        <route edges="gneE8 gneE12 -261073253#6 -261073253#2 261073253#2"/>
    </vehicle>
    <vehicle id="73" type="passenger" depart="75.77" departLane="best">
        <route edges="-261073253#6 261073253#4 518338236#1"/>
    </vehicle>
    <vehicle id="74" type="passenger" depart="76.81" departLane="best">
        <route edges="261073253#0 261073253#2 261073253#4 518338236#1"/>
    </vehicle>
    <vehicle id="75" type="passenger" depart="77.85" departLane="best">
        <route edges="gneE4 -518338221#2 -261073253#6 -261073253#2 -261073253#1 gneE9 -707843640#1"/>
    </vehicle>
    <vehicle id="76" type="passenger" depart="78.89" departLane="best">
        <route edges="gneE1 261073253#0 261073253#2 261073253#4 gneE13 gneE6 gneE4"/>
    </vehicle>
    <vehicle id="77" type="passenger" depart="79.93" departLane="best" departSpeed="max">
        <route edges="gneE8 gneE12 -261073253#6"/>
    </vehicle>
    <vehicle id="78" type="passenger" depart="80.96" departLane="best">
        <route edges="gneE6 gneE4 -518338221#2 518338236#1"/>
    </vehicle>
    <vehicle id="79" type="passenger" depart="82.00" departLane="best">
        <route edges="-261073253#2 261073253#2 261073253#4 gneE13 gneE6 gneE4"/>
    </vehicle>
    <vehicle id="80" type="passenger" depart="83.04" departLane="best">
        <route edges="261073253#2 261073253#4 gneE13 gneE6 gneE4"/>
    </vehicle>
    <vehicle id="81" type="passenger" depart="84.08" departLane="best" departSpeed="max">
        <route edges="gneE8 41714395#1 453279793 -707843640#1"/>
    </vehicle>
    <vehicle id="82" type="passenger" depart="85.12" departLane="best">
        <route edges="453279793 gneE1 261073253#0 261073253#2 261073253#4 518338236#1"/>
    </vehicle>
    <vehicle id="83" type="passenger" depart="86.15" departLane="best">
        <route edges="-41714395#3 gneE6 gneE4"/>
    </vehicle>
    <vehicle id="84" type="passenger" depart="87.19" departLane="best">
        <route edges="261073253#4 gneE13 gneE6 gneE4"/>
    </vehicle>
    <vehicle id="85" type="passenger" depart="88.23" departLane="best" departSpeed="max">
        <route edges="gneE8 41714395#1 453279793 gneE1 261073253#0"/>
    </vehicle>
    <vehicle id="86" type="passenger" depart="89.27" departLane="best" departSpeed="max">
        <route edges="gneE8 gneE12 -261073253#6"/>
    </vehicle>
    <vehicle id="87" type="passenger" depart="90.31" departLane="best" departSpeed="max">
        <route edges="gneE8 41714395#1 gneE10 261073253#4 gneE13"/>
    </vehicle>
    <vehicle id="88" type="passenger" depart="91.34" departLane="best">
        <route edges="-707843640#1 -41714395#3 gneE12"/>
    </vehicle>
    <vehicle id="89" type="passenger" depart="92.38" departLane="best" departSpeed="max">
        <route edges="gneE8 41714395#1 453279793 -707843640#1"/>
    </vehicle>
    <vehicle id="90" type="passenger" depart="93.42" departLane="best">
        <route edges="261073253#4 gneE13 gneE6 gneE4"/>
    </vehicle>
    <vehicle id="91" type="passenger" depart="94.46" departLane="best" departSpeed="max">
        <route edges="gneE8 41714395#1 453279793 gneE1 261073253#0"/>
    </vehicle>
    <vehicle id="92" type="passenger" depart="95.50" departLane="best">
        <route edges="gneE9 -707843640#1 gneE10 261073253#4 518338236#1"/>
    </vehicle>
    <vehicle id="93" type="passenger" depart="96.53" departLane="best" departSpeed="max">
        <route edges="gneE8 gneE12 -261073253#6"/>
    </vehicle>
    <vehicle id="94" type="passenger" depart="97.57" departLane="best" departSpeed="max">
        <route edges="gneE8 gneE12 518338236#1 -518338221#2"/>
    </vehicle>
    <vehicle id="95" type="passenger" depart="98.61" departLane="best" departSpeed="max">
        <route edges="gneE8 41714395#1 453279793 gneE1 261073253#0"/>
    </vehicle>
    <vehicle id="96" type="passenger" depart="99.65" departLane="best">
        <route edges="-261073253#6 gneE11 453279793"/>
    </vehicle>
    <vehicle id="97" type="passenger" depart="100.69" departLane="best">
        <route edges="gneE4 -518338221#2 -261073253#6 -261073253#2 261073253#2"/>
    </vehicle>
    <vehicle id="98" type="passenger" depart="101.72" departLane="best">
        <route edges="gneE12 518338236#1"/>
    </vehicle>
    <vehicle id="99" type="passenger" depart="102.76" departLane="best">
        <route edges="41714395#1 gneE10 261073253#4 518338236#1"/>
    </vehicle>
    <vehicle id="100" type="passenger" depart="103.80" departLane="best">
        <route edges="-261073253#1 gneE9 -707843640#1 -41714395#3 gneE6 gneE4"/>
    </vehicle>
    <vehicle id="101" type="passenger" depart="104.84" departLane="best">
        <route edges="gneE6 gneE4 -518338221#2 -261073253#6 gneE11 453279793 gneE1"/>
    </vehicle>
    <vehicle id="102" type="passenger" depart="105.88" departLane="best">
        <route edges="41714395#1 gneE10 -261073253#2"/>
    </vehicle>
    <vehicle id="103" type="passenger" depart="106.91" departLane="best">
        <route edges="gneE4 -518338221#2 -261073253#6 261073253#4"/>
    </vehicle>
    <vehicle id="104" type="passenger" depart="107.95" departLane="best">
        <route edges="261073253#2 261073253#4 gneE13"/>
    </vehicle>
    <vehicle id="105" type="passenger" depart="108.99" departLane="best">
        <route edges="gneE4 -518338221#2 -261073253#6 -261073253#2 261073253#2"/>
    </vehicle>
    <vehicle id="106" type="passenger" depart="110.03" departLane="best" departSpeed="max">
        <route edges="gneE8 41714395#1 453279793 gneE1"/>
    </vehicle>
    <vehicle id="107" type="passenger" depart="111.07" departLane="best">
        <route edges="261073253#2 261073253#4 518338236#1"/>
    </vehicle>
    <vehicle id="108" type="passenger" depart="112.10" departLane="best">
        <route edges="453279793 gneE1 261073253#0 261073253#2 261073253#4 518338236#1"/>
    </vehicle>
    <vehicle id="109" type="passenger" depart="113.14" departLane="best">
        <route edges="gneE13 41714395#1 gneE10 261073253#4 518338236#1"/>
    </vehicle>
    <vehicle id="110" type="passenger" depart="114.18" departLane="best">
        <route edges="gneE1 261073253#0 261073253#2 261073253#4 gneE13 gneE6 gneE4"/>
    </vehicle>
    <vehicle id="111" type="passenger" depart="115.22" departLane="best" departSpeed="max">
        <route edges="gneE8 gneE12 518338236#1 -518338221#2"/>
    </vehicle>
    <vehicle id="112" type="passenger" depart="116.26" departLane="best">
        <route edges="-261073253#6 261073253#4 518338236#1"/>
    </vehicle>
    <vehicle id="113" type="passenger" depart="117.29" departLane="best" departSpeed="max">
        <route edges="gneE8 gneE12 -261073253#6 gneE11"/>
    </vehicle>
    <vehicle id="114" type="passenger" depart="118.33" departLane="best">
        <route edges="gneE4 -518338221#2 -261073253#6 -261073253#2 -261073253#1 gneE9 -707843640#1"/>
    </vehicle>
    <vehicle id="115" type="passenger" depart="119.37" departLane="best">
        <route edges="-518338221#2 -261073253#6 -261073253#2 -261073253#1"/>
    </vehicle>
    <vehicle id="116" type="passenger" depart="120.41" departLane="best">
        <route edges="261073253#0 261073253#2 261073253#4 518338236#1"/>
    </vehicle>
    <vehicle id="117" type="passenger" depart="121.45" departLane="best" departSpeed="max">
        <route edges="gneE8 gneE12 -261073253#6 -261073253#2"/>
    </vehicle>
    <vehicle id="118" type="passenger" depart="122.48" departLane="best">
        <route edges="453279793 gneE1 261073253#0 261073253#2 261073253#4 518338236#1"/>
    </vehicle>
    <vehicle id="119" type="passenger" depart="123.52" departLane="best">
        <route edges="-518338221#2 -261073253#6 gneE11 453279793 gneE1"/>
    </vehicle>
    <vehicle id="120" type="passenger" depart="124.56" departLane="best">
        <route edges="gneE13 41714395#1 gneE10 -261073253#2 -261073253#1"/>
    </vehicle>
    <vehicle id="121" type="passenger" depart="125.60" departLane="best">
        <route edges="-261073253#6 gneE11 453279793"/>
    </vehicle>
    <vehicle id="122" type="passenger" depart="126.64" departLane="best">
        <route edges="261073253#0 261073253#2 261073253#4 gneE13"/>
    </vehicle>
    <vehicle id="123" type="passenger" depart="127.67" departLane="best">
        <route edges="gneE4 -518338221#2 -261073253#6 -261073253#2 -261073253#1 gneE9"/>
    </vehicle>
    <vehicle id="124" type="passenger" depart="128.71" departLane="best">
        <route edges="gneE12 -261073253#6 261073253#4 gneE13 gneE6"/>
    </vehicle>
    <vehicle id="125" type="passenger" depart="129.75" departLane="best" departSpeed="max">
        <route edges="gneE8 gneE12 -261073253#6 gneE11"/>
    </vehicle>
    <vehicle id="126" type="passenger" depart="130.79" departLane="best">
        <route edges="261073253#0 261073253#2 261073253#4 518338236#1"/>
    </vehicle>
    <vehicle id="127" type="passenger" depart="131.83" departLane="best">
        <route edges="gneE6 gneE4 -518338221#2 518338236#1"/>
    </vehicle>
    <vehicle id="128" type="passenger" depart="132.86" departLane="best">
        <route edges="gneE4 -518338221#2 -261073253#6 -261073253#2"/>
    </vehicle>
    <vehicle id="129" type="passenger" depart="133.90" departLane="best">
        <route edges="453279793 gneE1 261073253#0 261073253#2 261073253#4 518338236#1"/>
    </vehicle>
    <vehicle id="130" type="passenger" depart="134.94" departLane="best">
        <route edges="453279793 -707843640#1 -41714395#3 gneE6 gneE4"/>
    </vehicle>
    <vehicle id="131" type="passenger" depart="135.98" departLane="best">
        <route edges="gneE12 -261073253#6 gneE11 453279793 gneE1"/>
    </vehicle>
    <vehicle id="132" type="passenger" depart="137.02" departLane="best" departSpeed="max">
        <route edges="gneE8 gneE12 -261073253#6 gneE11"/>
    </vehicle>
    <vehicle id="133" type="passenger" depart="138.05" departLane="best">
        <route edges="41714395#1 gneE10 -261073253#2 -261073253#1"/>
    </vehicle>
    <vehicle id="134" type="passenger" depart="139.09" departLane="best">
        <route edges="gneE11 -41714395#3 gneE12 518338236#1"/>
    </vehicle>
    <vehicle id="135" type="passenger" depart="140.13" departLane="best">
        <route edges="gneE1 261073253#0 261073253#2 gneE11 -41714395#3"/>
    </vehicle>
    <vehicle id="136" type="passenger" depart="141.17" departLane="best">
        <route edges="gneE13 41714395#1 gneE10 -261073253#2 -261073253#1"/>
    </vehicle>
    <vehicle id="137" type="passenger" depart="142.21" departLane="best">
        <route edges="41714395#1 gneE10 261073253#4 518338236#1"/>
    </vehicle>
    <vehicle id="138" type="passenger" depart="143.24" departLane="best">
        <route edges="-261073253#1 gneE9 -707843640#1 gneE10 261073253#4 518338236#1"/>
    </vehicle>
    <vehicle id="139" type="passenger" depart="144.28" departLane="best">
        <route edges="-41714395#3 gneE12 518338236#1"/>
    </vehicle>
    <vehicle id="140" type="passenger" depart="145.32" departLane="best">
        <route edges="-707843640#1 gneE10 261073253#4"/>
    </vehicle>
    <vehicle id="141" type="passenger" depart="146.36" departLane="best">
        <route edges="-261073253#1 gneE9 -707843640#1 gneE10 261073253#4 518338236#1"/>
    </vehicle>
    <vehicle id="142" type="passenger" depart="147.40" departLane="best">
        <route edges="gneE9 -707843640#1 gneE10 261073253#4"/>
    </vehicle>
    <vehicle id="143" type="passenger" depart="148.43" departLane="best" departSpeed="max">
        <route edges="gneE8 gneE12 518338236#1 -518338221#2"/>
    </vehicle>
    <vehicle id="144" type="passenger" depart="149.47" departLane="best">
        <route edges="-261073253#1 gneE9 -707843640#1 -41714395#3"/>
    </vehicle>
    <vehicle id="145" type="passenger" depart="150.51" departLane="best">
        <route edges="gneE4 -518338221#2 -261073253#6 gneE11"/>
    </vehicle>
    <vehicle id="146" type="passenger" depart="151.55" departLane="best">
        <route edges="-261073253#6 -261073253#2 -261073253#1"/>
    </vehicle>
    <vehicle id="147" type="passenger" depart="152.59" departLane="best" departSpeed="max">
        <route edges="gneE8 41714395#1"/>
    </vehicle>
    <vehicle id="148" type="passenger" depart="153.62" departLane="best">
        <route edges="gneE4 -518338221#2 -261073253#6 -261073253#2"/>
    </vehicle>
    <vehicle id="149" type="passenger" depart="154.66" departLane="best" departSpeed="max">
        <route edges="gneE8 41714395#1 gneE10 261073253#4"/>
    </vehicle>
    <vehicle id="150" type="passenger" depart="155.70" departLane="best" departSpeed="max">
        <route edges="gneE8 41714395#1 gneE10 261073253#4 gneE13"/>
    </vehicle>
    <vehicle id="151" type="passenger" depart="156.74" departLane="best">
        <route edges="-261073253#6 261073253#4 gneE13 gneE6"/>
    </vehicle>
    <vehicle id="152" type="passenger" depart="157.78" departLane="best">
        <route edges="gneE4 -518338221#2 -261073253#6 gneE11 453279793"/>
    </vehicle>
    <vehicle id="153" type="passenger" depart="158.81" departLane="best">
        <route edges="261073253#0 261073253#2 gneE11 -41714395#3 gneE12"/>
    </vehicle>
    <vehicle id="154" type="passenger" depart="159.85" departLane="best">
        <route edges="gneE10 261073253#4 518338236#1"/>
    </vehicle>
    <vehicle id="155" type="passenger" depart="160.89" departLane="best">
        <route edges="261073253#0 261073253#2 261073253#4 gneE13"/>
    </vehicle>
    <vehicle id="156" type="passenger" depart="161.93" departLane="best" departSpeed="max">
        <route edges="gneE8 gneE12 -261073253#6"/>
    </vehicle>
    <vehicle id="157" type="passenger" depart="162.97" departLane="best" departSpeed="max">
        <route edges="gneE8 41714395#1 453279793 gneE1 261073253#0"/>
    </vehicle>
    <vehicle id="158" type="passenger" depart="164.00" departLane="best">
        <route edges="gneE1 261073253#0 261073253#2 261073253#4 518338236#1"/>
    </vehicle>
    <vehicle id="159" type="passenger" depart="165.04" departLane="best">
        <route edges="41714395#1 gneE10 -261073253#2 -261073253#1"/>
    </vehicle>
    <vehicle id="160" type="passenger" depart="166.08" departLane="best" departSpeed="max">
        <route edges="gneE8 gneE12 518338236#1 -518338221#2"/>
    </vehicle>
    <vehicle id="161" type="passenger" depart="167.12" departLane="best">
        <route edges="-707843640#1 -41714395#3 gneE12"/>
    </vehicle>
    <vehicle id="162" type="passenger" depart="168.16" departLane="best">
        <route edges="261073253#4 gneE13 gneE6 gneE4"/>
    </vehicle>
    <vehicle id="163" type="passenger" depart="169.19" departLane="best">
        <route edges="gneE4 -518338221#2 -261073253#6 gneE11 453279793 gneE1 261073253#0"/>
    </vehicle>
    <vehicle id="164" type="passenger" depart="170.23" departLane="best">
        <route edges="-261073253#1 gneE9 -707843640#1 -41714395#3 gneE6"/>
    </vehicle>
    <vehicle id="165" type="passenger" depart="171.27" departLane="best">
        <route edges="gneE1 261073253#0 261073253#2 gneE11 -41714395#3 gneE12"/>
    </vehicle>
    <vehicle id="166" type="passenger" depart="172.31" departLane="best">
        <route edges="gneE4 -518338221#2 -261073253#6 -261073253#2 261073253#2"/>
    </vehicle>
    <vehicle id="167" type="passenger" depart="173.35" departLane="best">
        <route edges="gneE12 518338236#1"/>
    </vehicle>
    <vehicle id="168" type="passenger" depart="174.38" departLane="best">
        <route edges="gneE4 -518338221#2 -261073253#6 gneE11 453279793 gneE1 261073253#0"/>
    </vehicle>
    <vehicle id="169" type="passenger" depart="175.42" departLane="best">
        <route edges="261073253#0 261073253#2 gneE11 -41714395#3"/>
    </vehicle>
    <vehicle id="170" type="passenger" depart="176.46" departLane="best">
        <route edges="-518338221#2 -261073253#6"/>
    </vehicle>
    <vehicle id="171" type="passenger" depart="177.50" departLane="best">
        <route edges="-518338221#2 -261073253#6 -261073253#2 -261073253#1 gneE9 -707843640#1"/>
    </vehicle>
    <vehicle id="172" type="passenger" depart="178.54" departLane="best">
        <route edges="-518338221#2 -261073253#6 -261073253#2 -261073253#1 gneE9 -707843640#1"/>
    </vehicle>
    <vehicle id="173" type="passenger" depart="179.57" departLane="best">
        <route edges="-518338221#2 -261073253#6 -261073253#2 -261073253#1"/>
    </vehicle>
    <vehicle id="174" type="passenger" depart="180.61" departLane="best">
        <route edges="gneE4 -518338221#2 -261073253#6 gneE11 -41714395#3"/>
    </vehicle>
    <vehicle id="175" type="passenger" depart="181.65" departLane="best">
        <route edges="-518338221#2 -261073253#6 -261073253#2"/>
    </vehicle>
    <vehicle id="176" type="passenger" depart="182.69" departLane="best" departSpeed="max">
        <route edges="gneE8 41714395#1 453279793"/>