<?xml version="1.0" encoding="UTF-8"?>

<!-- generated on 05/01/20 14:47:10 by Eclipse SUMO netedit Version 1.5.0
<configuration xmlns:xsi="http://www.w3.org/2001/XMLSchema-instance" xsi:noNamespaceSchemaLocation="http://sumo.dlr.de/xsd/netconvertConfiguration.xsd">

    <input>
        <sumo-net-file value="C:\PythonProjects\SUMO%20Projects\Projects\Onlab_Cars\pecs_belvaros_cut_changedTL.net.xml"/>
    </input>

    <output>
        <output-file value="C:\PythonProjects\SUMO%20Projects\Projects\Onlab_Cars\pecs_belvaros_cut_changedTL4es.net.xml"/>
        <output.street-names value="true"/>
    </output>

    <processing>
        <geometry.min-radius.fix.railways value="false"/>
        <geometry.max-grade.fix value="false"/>
        <offset.disable-normalization value="true"/>
        <lefthand value="false"/>
    </processing>

    <junctions>
        <no-turnarounds value="true"/>
        <junctions.corner-detail value="5"/>
        <junctions.limit-turn-speed value="5.5"/>
        <rectangular-lane-cut value="false"/>
    </junctions>

    <pedestrian>
        <walkingareas value="false"/>
    </pedestrian>

    <report>
        <aggregate-warnings value="5"/>
    </report>

</configuration>
-->

<net version="1.3" junctionCornerDetail="5" limitTurnSpeed="5.50" xmlns:xsi="http://www.w3.org/2001/XMLSchema-instance" xsi:noNamespaceSchemaLocation="http://sumo.dlr.de/xsd/net_file.xsd">

    <location netOffset="-283999.55,-5105174.30" convBoundary="1390.87,410.13,2172.51,815.09" origBoundary="18.206894,46.066453,18.243264,46.079145" projParameter="+proj=utm +zone=34 +ellps=WGS84 +datum=WGS84 +units=m +no_defs"/>

    <type id="highway.bridleway" priority="1" numLanes="1" speed="2.78" allow="pedestrian" oneway="1" width="2.00"/>
    <type id="highway.bus_guideway" priority="1" numLanes="1" speed="27.78" allow="bus" oneway="1"/>
    <type id="highway.cycleway" priority="1" numLanes="1" speed="8.33" allow="bicycle" oneway="0" width="1.00"/>
    <type id="highway.footway" priority="1" numLanes="1" speed="2.78" allow="pedestrian" oneway="1" width="2.00"/>
    <type id="highway.ford" priority="1" numLanes="1" speed="2.78" allow="army" oneway="0"/>
    <type id="highway.living_street" priority="2" numLanes="1" speed="2.78" disallow="tram rail_urban rail rail_electric rail_fast ship" oneway="0"/>
    <type id="highway.motorway" priority="14" numLanes="2" speed="39.44" allow="private emergency authority army vip passenger hov taxi bus coach delivery truck trailer motorcycle evehicle custom1 custom2" oneway="1"/>
    <type id="highway.motorway_link" priority="9" numLanes="1" speed="22.22" allow="private emergency authority army vip passenger hov taxi bus coach delivery truck trailer motorcycle evehicle custom1 custom2" oneway="1"/>
    <type id="highway.path" priority="1" numLanes="1" speed="2.78" allow="pedestrian bicycle" oneway="1" width="2.00"/>
    <type id="highway.pedestrian" priority="1" numLanes="1" speed="2.78" allow="pedestrian" oneway="1" width="2.00"/>
    <type id="highway.primary" priority="12" numLanes="2" speed="27.78" disallow="tram rail_urban rail rail_electric rail_fast ship" oneway="0"/>
    <type id="highway.primary_link" priority="7" numLanes="1" speed="22.22" disallow="tram rail_urban rail rail_electric rail_fast ship" oneway="0"/>
    <type id="highway.raceway" priority="15" numLanes="2" speed="83.33" allow="vip" oneway="0"/>
    <type id="highway.residential" priority="3" numLanes="1" speed="13.89" disallow="tram rail_urban rail rail_electric rail_fast ship" oneway="0"/>
    <type id="highway.secondary" priority="11" numLanes="2" speed="27.78" disallow="tram rail_urban rail rail_electric rail_fast ship" oneway="0"/>
    <type id="highway.secondary_link" priority="6" numLanes="1" speed="22.22" disallow="tram rail_urban rail rail_electric rail_fast ship" oneway="0"/>
    <type id="highway.service" priority="1" numLanes="1" speed="5.56" allow="pedestrian delivery bicycle" oneway="0"/>
    <type id="highway.stairs" priority="1" numLanes="1" speed="1.39" allow="pedestrian" oneway="1" width="2.00"/>
    <type id="highway.step" priority="1" numLanes="1" speed="1.39" allow="pedestrian" oneway="1" width="2.00"/>
    <type id="highway.steps" priority="1" numLanes="1" speed="1.39" allow="pedestrian" oneway="1" width="2.00"/>
    <type id="highway.tertiary" priority="10" numLanes="1" speed="22.22" disallow="tram rail_urban rail rail_electric rail_fast ship" oneway="0"/>
    <type id="highway.tertiary_link" priority="5" numLanes="1" speed="22.22" disallow="tram rail_urban rail rail_electric rail_fast ship" oneway="0"/>
    <type id="highway.track" priority="1" numLanes="1" speed="5.56" disallow="tram rail_urban rail rail_electric rail_fast ship" oneway="0"/>
    <type id="highway.trunk" priority="13" numLanes="2" speed="27.78" disallow="pedestrian bicycle tram rail_urban rail rail_electric rail_fast ship" oneway="0"/>
    <type id="highway.trunk_link" priority="8" numLanes="1" speed="22.22" disallow="pedestrian bicycle tram rail_urban rail rail_electric rail_fast ship" oneway="0"/>
    <type id="highway.unclassified" priority="4" numLanes="1" speed="13.89" disallow="tram rail_urban rail rail_electric rail_fast ship" oneway="0"/>
    <type id="highway.unsurfaced" priority="1" numLanes="1" speed="8.33" disallow="tram rail_urban rail rail_electric rail_fast ship" oneway="0"/>
    <type id="railway.highspeed" priority="21" numLanes="1" speed="69.44" allow="rail_fast" oneway="1"/>
    <type id="railway.light_rail" priority="19" numLanes="1" speed="27.78" allow="rail_urban" oneway="1"/>
    <type id="railway.preserved" priority="16" numLanes="1" speed="27.78" allow="rail" oneway="1"/>
    <type id="railway.rail" priority="20" numLanes="1" speed="44.44" allow="rail" oneway="1"/>
    <type id="railway.subway" priority="18" numLanes="1" speed="27.78" allow="rail_urban" oneway="1"/>
    <type id="railway.tram" priority="17" numLanes="1" speed="13.89" allow="tram" oneway="1"/>

    <edge id=":2612160580_0" function="internal">
        <lane id=":2612160580_0_0" index="0" disallow="tram rail_urban rail rail_electric rail_fast ship" speed="13.89" length="0.17" shape="1479.38,703.17 1479.30,703.17"/>
        <lane id=":2612160580_0_1" index="1" disallow="tram rail_urban rail rail_electric rail_fast ship" speed="13.89" length="0.17" shape="1479.68,699.99 1479.44,699.97"/>
    </edge>
    <edge id=":2612160580_2" function="internal">
        <lane id=":2612160580_2_0" index="0" disallow="tram rail_urban rail rail_electric rail_fast ship" speed="3.65" length="2.34" shape="1479.68,699.99 1478.56,699.08 1478.24,698.24"/>
    </edge>
    <edge id=":2612160580_6" function="internal">
        <lane id=":2612160580_6_0" index="0" disallow="tram rail_urban rail rail_electric rail_fast ship" speed="3.65" length="2.34" shape="1478.24,698.24 1478.71,697.49 1479.98,696.80"/>
    </edge>
    <edge id=":2612160580_3" function="internal">
        <lane id=":2612160580_3_0" index="0" disallow="tram rail_urban rail rail_electric rail_fast ship" speed="13.89" length="0.49" shape="1479.71,693.58 1480.29,693.62"/>
        <lane id=":2612160580_3_1" index="1" disallow="tram rail_urban rail rail_electric rail_fast ship" speed="13.89" length="0.49" shape="1479.57,696.77 1479.98,696.80"/>
    </edge>
    <edge id=":2612160580_5" function="internal">
        <lane id=":2612160580_5_0" index="0" disallow="tram rail_urban rail rail_electric rail_fast ship" speed="3.65" length="2.34" shape="1479.57,696.77 1480.74,697.63 1481.10,698.44"/>
    </edge>
    <edge id=":2612160580_7" function="internal">
        <lane id=":2612160580_7_0" index="0" disallow="tram rail_urban rail rail_electric rail_fast ship" speed="3.65" length="2.34" shape="1481.10,698.44 1480.67,699.22 1479.44,699.97"/>
    </edge>
    <edge id=":357310957_0" function="internal">
        <lane id=":357310957_0_0" index="0" disallow="tram rail_urban rail rail_electric rail_fast ship" speed="9.92" length="18.94" shape="1428.58,700.99 1424.46,700.01 1421.22,697.47 1418.86,693.37 1417.39,687.70"/>
    </edge>
    <edge id=":357310957_1" function="internal">
        <lane id=":357310957_1_0" index="0" disallow="tram rail_urban rail rail_electric rail_fast ship" speed="6.56" length="7.77" shape="1423.71,686.69 1424.31,688.68 1425.39,690.12 1426.95,691.03 1429.00,691.40"/>
    </edge>
    <edge id=":357310957_2" function="internal">
        <lane id=":357310957_2_0" index="0" disallow="tram rail_urban rail rail_electric rail_fast ship" speed="8.06" length="12.20" shape="1420.55,687.20 1421.49,690.32 1423.19,692.59 1425.65,694.02 1428.86,694.60"/>
    </edge>
    <edge id=":North_East_TL_0" function="internal">
        <lane id=":North_East_TL_0_0" index="0" disallow="tram rail_urban rail rail_electric rail_fast ship" speed="13.89" length="19.83" shape="1759.09,741.21 1753.41,739.86 1749.49,739.09 1745.53,738.49 1739.75,737.67"/>
        <lane id=":North_East_TL_0_1" index="1" disallow="tram rail_urban rail rail_electric rail_fast ship" speed="13.89" length="19.83" shape="1759.86,738.10 1754.09,736.73 1750.11,735.95 1746.09,735.34 1740.21,734.50"/>
    </edge>
    <edge id=":North_East_TL_2" function="internal">
        <lane id=":North_East_TL_2_0" index="0" disallow="tram rail_urban rail rail_electric rail_fast ship" speed="9.46" length="6.65" shape="1759.86,738.10 1755.17,736.20 1754.02,735.09"/>
    </edge>
    <edge id=":North_East_TL_9" function="internal">
        <lane id=":North_East_TL_9_0" index="0" disallow="tram rail_urban rail rail_electric rail_fast ship" speed="9.46" length="12.22" shape="1754.02,735.09 1752.08,733.21 1750.57,729.14 1750.66,723.97"/>
    </edge>
    <edge id=":North_East_TL_3" function="internal">
        <lane id=":North_East_TL_3_0" index="0" disallow="tram rail_urban rail rail_electric rail_fast ship" speed="6.77" length="9.20" shape="1756.99,724.95 1756.93,727.50 1757.65,729.50 1759.14,730.96 1761.39,731.89"/>
    </edge>
    <edge id=":North_East_TL_4" function="internal">
        <lane id=":North_East_TL_4_0" index="0" disallow="tram rail_urban rail rail_electric rail_fast ship" speed="8.23" length="14.03" shape="1753.82,724.46 1753.75,728.32 1754.87,731.36 1757.16,733.58 1760.63,734.99"/>
    </edge>
    <edge id=":North_East_TL_5" function="internal">
        <lane id=":North_East_TL_5_0" index="0" disallow="tram rail_urban rail rail_electric rail_fast ship" speed="9.26" length="19.26" shape="1753.82,724.46 1752.29,729.50 1749.51,732.86 1745.49,734.53 1740.21,734.50"/>
    </edge>
    <edge id=":North_East_TL_6" function="internal">
        <lane id=":North_East_TL_6_0" index="0" disallow="tram rail_urban rail rail_electric rail_fast ship" speed="6.51" length="8.99" shape="1741.15,728.17 1743.61,728.18 1745.49,727.40 1746.78,725.84 1747.50,723.48"/>
    </edge>
    <edge id=":North_East_TL_7" function="internal">
        <lane id=":North_East_TL_7_0" index="0" disallow="tram rail_urban rail rail_electric rail_fast ship" speed="13.89" length="20.45" shape="1741.15,728.17 1747.12,729.03 1751.34,729.68 1755.53,730.50 1761.39,731.89"/>
        <lane id=":North_East_TL_7_1" index="1" disallow="tram rail_urban rail rail_electric rail_fast ship" speed="13.89" length="20.45" shape="1740.68,731.34 1746.61,732.19 1750.72,732.81 1754.80,733.61 1760.63,734.99"/>
    </edge>
    <edge id=":North_West_TL_0" function="internal">
        <lane id=":North_West_TL_0_0" index="0" disallow="tram rail_urban rail rail_electric rail_fast ship" speed="13.89" length="20.49" shape="1564.23,711.81 1543.98,709.28"/>
        <lane id=":North_West_TL_0_1" index="1" disallow="tram rail_urban rail rail_electric rail_fast ship" speed="13.89" length="20.49" shape="1564.70,708.65 1544.29,706.09"/>
    </edge>
    <edge id=":North_West_TL_2" function="internal">
        <lane id=":North_West_TL_2_0" index="0" disallow="tram rail_urban rail rail_electric rail_fast ship" speed="10.10" length="6.14" shape="1564.70,708.65 1560.07,707.17 1559.09,706.33"/>
    </edge>
    <edge id=":North_West_TL_9" function="internal">
        <lane id=":North_West_TL_9_0" index="0" disallow="tram rail_urban rail rail_electric rail_fast ship" speed="10.10" length="13.72" shape="1559.09,706.33 1556.69,704.29 1554.54,699.99 1553.64,694.30"/>
    </edge>
    <edge id=":North_West_TL_3" function="internal">
        <lane id=":North_West_TL_3_0" index="0" disallow="tram rail_urban rail rail_electric rail_fast ship" speed="7.63" length="10.94" shape="1560.03,694.01 1560.51,697.35 1561.60,699.85 1563.31,701.50 1565.63,702.31"/>
    </edge>
    <edge id=":North_West_TL_4" function="internal">
        <lane id=":North_West_TL_4_0" index="0" disallow="tram rail_urban rail rail_electric rail_fast ship" speed="8.95" length="15.40" shape="1556.83,694.15 1557.52,698.67 1559.14,702.07 1561.69,704.34 1565.16,705.48"/>
    </edge>
    <edge id=":North_West_TL_5" function="internal">
        <lane id=":North_West_TL_5_0" index="0" disallow="tram rail_urban rail rail_electric rail_fast ship" speed="9.06" length="20.44" shape="1556.83,694.15 1556.27,699.84 1553.99,703.73 1549.99,705.81 1544.29,706.09"/>
    </edge>
    <edge id=":North_West_TL_6" function="internal">
        <lane id=":North_West_TL_6_0" index="0" disallow="tram rail_urban rail rail_electric rail_fast ship" speed="6.23" length="9.05" shape="1544.89,699.72 1547.41,699.60 1549.18,698.68 1550.19,696.96 1550.44,694.44"/>
    </edge>
    <edge id=":North_West_TL_7" function="internal">
        <lane id=":North_West_TL_7_0" index="0" disallow="tram rail_urban rail rail_electric rail_fast ship" speed="13.89" length="20.82" shape="1544.89,699.72 1565.63,702.31"/>
        <lane id=":North_West_TL_7_1" index="1" disallow="tram rail_urban rail rail_electric rail_fast ship" speed="13.89" length="20.82" shape="1544.59,702.91 1565.16,705.48"/>
    </edge>
    <edge id=":South_East_TL_0" function="internal">
        <lane id=":South_East_TL_0_0" index="0" speed="6.16" length="9.05" shape="1793.96,523.49 1791.46,523.02 1789.54,523.53 1788.21,524.99 1787.47,527.43"/>
    </edge>
    <edge id=":South_East_TL_1" function="internal">
        <lane id=":South_East_TL_1_0" index="0" disallow="tram rail_urban rail rail_electric rail_fast ship" speed="13.89" length="24.24" shape="1793.96,523.49 1787.77,521.38 1782.63,519.90 1777.40,519.06 1770.91,518.91"/>
        <lane id=":South_East_TL_1_1" index="1" disallow="tram rail_urban rail rail_electric rail_fast ship" speed="13.89" length="24.24" shape="1794.99,520.46 1788.63,518.32 1783.10,516.78 1777.48,515.89 1770.82,515.71"/>
    </edge>
    <edge id=":South_East_TL_3" function="internal">
        <lane id=":South_East_TL_3_0" index="0" speed="10.19" length="7.54" shape="1794.99,520.46 1789.74,517.89 1788.56,516.68"/>
    </edge>
    <edge id=":South_East_TL_16" function="internal">
        <lane id=":South_East_TL_16_0" index="0" speed="10.19" length="13.47" shape="1788.56,516.68 1786.30,514.36 1784.67,509.86 1784.85,504.41"/>
    </edge>
    <edge id=":South_East_TL_4" function="internal">
        <lane id=":South_East_TL_4_0" index="0" speed="7.74" length="11.75" shape="1791.15,505.56 1791.07,508.53 1792.03,510.99 1794.02,512.95 1797.05,514.40"/>
    </edge>
    <edge id=":South_East_TL_5" function="internal">
        <lane id=":South_East_TL_5_0" index="0" speed="13.89" length="22.22" shape="1791.15,505.56 1787.47,527.43"/>
        <lane id=":South_East_TL_5_1" index="1" speed="13.89" length="22.22" shape="1788.00,504.99 1784.31,526.94"/>
    </edge>
    <edge id=":South_East_TL_7" function="internal">
        <lane id=":South_East_TL_7_0" index="0" disallow="tram rail_urban rail rail_electric rail_fast ship" speed="10.70" length="5.87" shape="1788.00,504.99 1786.22,509.53 1785.50,510.21"/>
    </edge>
    <edge id=":South_East_TL_17" function="internal">
        <lane id=":South_East_TL_17_0" index="0" disallow="tram rail_urban rail rail_electric rail_fast ship" speed="10.70" length="16.17" shape="1785.50,510.21 1782.76,512.83 1777.63,514.89 1770.82,515.71"/>
    </edge>
    <edge id=":South_East_TL_8" function="internal">
        <lane id=":South_East_TL_8_0" index="0" disallow="tram rail_urban rail rail_electric rail_fast ship" speed="8.41" length="13.28" shape="1770.65,509.31 1775.13,508.87 1778.46,507.81 1780.66,506.13 1781.70,503.83"/>
    </edge>
    <edge id=":South_East_TL_9" function="internal">
        <lane id=":South_East_TL_9_0" index="0" disallow="tram rail_urban rail rail_electric rail_fast ship" speed="13.89" length="26.48" shape="1770.65,509.31 1777.66,509.54 1784.05,510.55 1790.33,512.21 1797.05,514.40"/>
        <lane id=":South_East_TL_9_1" index="1" disallow="tram rail_urban rail rail_electric rail_fast ship" speed="13.89" length="26.48" shape="1770.74,512.51 1777.57,512.72 1783.58,513.67 1789.48,515.27 1796.02,517.43"/>
    </edge>
    <edge id=":South_East_TL_11" function="internal">
        <lane id=":South_East_TL_11_0" index="0" disallow="tram rail_urban rail rail_electric rail_fast ship" speed="9.58" length="9.61" shape="1770.74,512.51 1777.53,513.26 1779.92,514.66"/>
    </edge>
    <edge id=":South_East_TL_18" function="internal">
        <lane id=":South_East_TL_18_0" index="0" disallow="tram rail_urban rail rail_electric rail_fast ship" speed="9.58" length="14.04" shape="1779.92,514.66 1782.06,515.91 1784.32,520.47 1784.31,526.94"/>
    </edge>
    <edge id=":South_East_TL_12" function="internal">
        <lane id=":South_East_TL_12_0" index="0" disallow="tram rail_urban rail rail_electric rail_fast ship" speed="6.96" length="11.92" shape="1777.98,525.96 1777.96,522.80 1776.78,520.56 1774.42,519.27 1770.91,518.91"/>
    </edge>
    <edge id=":South_East_TL_13" function="internal">
        <lane id=":South_East_TL_13_0" index="0" speed="13.89" length="22.40" shape="1777.98,525.96 1781.70,503.83"/>
        <lane id=":South_East_TL_13_1" index="1" speed="13.89" length="22.40" shape="1781.15,526.45 1784.85,504.41"/>
    </edge>
    <edge id=":South_East_TL_15" function="internal">
        <lane id=":South_East_TL_15_0" index="0" speed="9.02" length="7.40" shape="1781.15,526.45 1782.85,520.87 1783.90,519.71"/>
    </edge>
    <edge id=":South_East_TL_19" function="internal">
        <lane id=":South_East_TL_19_0" index="0" speed="9.02" length="13.34" shape="1783.90,519.71 1785.90,517.51 1790.29,516.36 1796.02,517.43"/>
    </edge>
    <edge id=":South_West_TL_0" function="internal">
        <lane id=":South_West_TL_0_0" index="0" disallow="tram rail_urban rail rail_electric rail_fast ship" speed="6.61" length="9.03" shape="1543.33,534.02 1542.87,531.61 1541.76,529.88 1539.99,528.84 1537.56,528.49"/>
    </edge>
    <edge id=":South_West_TL_1" function="internal">
        <lane id=":South_West_TL_1_0" index="0" disallow="tram rail_urban rail rail_electric rail_fast ship" speed="8.09" length="14.01" shape="1546.52,533.88 1545.82,530.13 1544.09,527.45 1541.34,525.83 1537.56,525.29"/>
    </edge>
    <edge id=":South_West_TL_2" function="internal">
        <lane id=":South_West_TL_2_0" index="0" disallow="tram rail_urban rail rail_electric rail_fast ship" speed="9.82" length="22.20" shape="1546.52,533.88 1546.98,527.11 1549.05,522.23 1552.71,519.23 1557.98,518.13"/>
    </edge>
    <edge id=":South_West_TL_3" function="internal">
        <lane id=":South_West_TL_3_0" index="0" disallow="tram rail_urban rail rail_electric rail_fast ship" speed="7.30" length="11.80" shape="1558.15,524.53 1555.71,525.15 1554.03,526.87 1553.10,529.68 1552.92,533.60"/>
    </edge>
    <edge id=":South_West_TL_4" function="internal">
        <lane id=":South_West_TL_4_0" index="0" disallow="tram rail_urban rail rail_electric rail_fast ship" speed="13.89" length="20.55" shape="1558.15,524.53 1537.56,525.29"/>
        <lane id=":South_West_TL_4_1" index="1" disallow="tram rail_urban rail rail_electric rail_fast ship" speed="13.89" length="20.55" shape="1558.06,521.33 1537.57,522.09"/>
    </edge>
    <edge id=":South_West_TL_6" function="internal">
        <lane id=":South_West_TL_6_0" index="0" disallow="tram rail_urban rail rail_electric rail_fast ship" speed="13.89" length="20.37" shape="1537.59,515.69 1557.90,514.93"/>
        <lane id=":South_West_TL_6_1" index="1" disallow="tram rail_urban rail rail_electric rail_fast ship" speed="13.89" length="20.37" shape="1537.58,518.89 1557.98,518.13"/>
    </edge>
    <edge id=":South_West_TL_8" function="internal">
        <lane id=":South_West_TL_8_0" index="0" disallow="tram rail_urban rail rail_electric rail_fast ship" speed="9.92" length="5.90" shape="1537.58,518.89 1542.65,519.83 1543.24,520.28"/>
    </edge>
    <edge id=":South_West_TL_9" function="internal">
        <lane id=":South_West_TL_9_0" index="0" disallow="tram rail_urban rail rail_electric rail_fast ship" speed="9.92" length="15.66" shape="1543.24,520.28 1546.36,522.62 1548.72,527.25 1549.72,533.74"/>
    </edge>
    <edge id=":cluster_16723972_1795955697_3184279640_360354713_360354927_360354984_360354997_0" function="internal">
        <lane id=":cluster_16723972_1795955697_3184279640_360354713_360354927_360354984_360354997_0_0" index="0" disallow="tram rail_urban rail rail_electric rail_fast ship" speed="13.60" length="39.34" shape="2114.40,818.72 2110.77,822.31 2103.32,823.68 2092.07,822.83 2077.01,819.75"/>
    </edge>
    <edge id=":cluster_16723972_1795955697_3184279640_360354713_360354927_360354984_360354997_1" function="internal">
        <lane id=":cluster_16723972_1795955697_3184279640_360354713_360354927_360354984_360354997_1_0" index="0" disallow="tram rail_urban rail rail_electric rail_fast ship" speed="12.83" length="34.90" shape="2111.40,817.62 2108.37,820.08 2101.76,820.73 2091.56,819.59 2077.78,816.64"/>
    </edge>
    <edge id=":cluster_16723972_1795955697_3184279640_360354713_360354927_360354984_360354997_2" function="internal">
        <lane id=":cluster_16723972_1795955697_3184279640_360354713_360354927_360354984_360354997_2_0" index="0" disallow="tram rail_urban rail rail_electric rail_fast ship" speed="11.25" length="26.65" shape="2079.31,810.43 2090.54,813.11 2098.62,814.83 2103.58,815.60 2105.39,815.41"/>
    </edge>
    <edge id=":cluster_16723972_1795955697_3184279640_360354713_360354927_360354984_360354997_3" function="internal">
        <lane id=":cluster_16723972_1795955697_3184279640_360354713_360354927_360354984_360354997_3_0" index="0" disallow="tram rail_urban rail rail_electric rail_fast ship" speed="12.04" length="30.62" shape="2078.54,813.54 2091.05,816.35 2100.19,817.78 2105.97,817.84 2108.40,816.51"/>
    </edge>
    <edge id=":cluster_16723972_1795955697_3184279640_360354713_360354927_360354984_360354997_4" function="internal">
        <lane id=":cluster_16723972_1795955697_3184279640_360354713_360354927_360354984_360354997_4_0" index="0" disallow="tram rail_urban rail rail_electric rail_fast ship" speed="3.65" length="4.67" shape="2078.54,813.54 2079.52,814.60 2079.71,815.47 2079.13,816.15 2077.78,816.64"/>
    </edge>
    <edge id=":cluster_17327344_4165977623_0" function="internal">
        <lane id=":cluster_17327344_4165977623_0_0" index="0" disallow="tram rail_urban rail rail_electric rail_fast ship" speed="10.19" length="26.59" shape="1392.92,534.94 1392.45,526.35 1394.18,520.22 1398.10,516.55 1404.23,515.34"/>
    </edge>
    <edge id=":cluster_17327344_4165977623_1" function="internal">
        <lane id=":cluster_17327344_4165977623_1_0" index="0" disallow="tram rail_urban rail rail_electric rail_fast ship" speed="9.62" length="23.58" shape="1392.92,534.94 1392.64,527.75 1394.43,522.62 1398.29,519.55 1404.22,518.54"/>
    </edge>
    <edge id=":cluster_17327344_4165977623_2" function="internal">
        <lane id=":cluster_17327344_4165977623_2_0" index="0" disallow="tram rail_urban rail rail_electric rail_fast ship" speed="6.19" length="9.05" shape="1404.20,528.14 1401.68,528.49 1400.02,529.58 1399.20,531.39 1399.24,533.93"/>
    </edge>
    <edge id=":cluster_17327344_4165977623_3" function="internal">
        <lane id=":cluster_17327344_4165977623_3_0" index="0" disallow="tram rail_urban rail rail_electric rail_fast ship" speed="7.74" length="14.84" shape="1404.20,524.94 1400.08,525.52 1397.35,527.30 1396.02,530.27 1396.08,534.43"/>
    </edge>
    <edge id=":cluster_17327344_4165977623_4" function="internal">
        <lane id=":cluster_17327344_4165977623_4_0" index="0" disallow="tram rail_urban rail rail_electric rail_fast ship" speed="3.65" length="4.67" shape="1404.21,521.74 1403.01,520.93 1402.62,520.13 1403.02,519.33 1404.22,518.54"/>
    </edge>
    <edge id=":gneJ0_0" function="internal">
        <lane id=":gneJ0_0_0" index="0" speed="8.96" length="18.40" shape="2167.84,640.19 2172.35,642.47 2175.00,645.65 2175.80,649.71 2174.75,654.66"/>
    </edge>
    <edge id=":gneJ0_1" function="internal">
        <lane id=":gneJ0_1_0" index="0" speed="7.65" length="13.14" shape="2166.81,643.22 2170.03,644.85 2171.93,647.12 2172.50,650.02 2171.75,653.55"/>
    </edge>
    <edge id=":gneJ0_2" function="internal">
        <lane id=":gneJ0_2_0" index="0" speed="3.90" length="2.63" shape="2165.74,651.34 2165.89,650.64 2165.78,650.06 2165.40,649.60 2164.75,649.28"/>
    </edge>
    <edge id=":gneJ0_3" function="internal">
        <lane id=":gneJ0_3_0" index="0" speed="6.07" length="7.88" shape="2168.74,652.45 2169.19,650.33 2168.85,648.59 2167.71,647.23 2165.78,646.25"/>
    </edge>
    <edge id=":gneJ3_0" function="internal">
        <lane id=":gneJ3_0_0" index="0" speed="3.65" length="4.67" shape="1802.18,409.84 1803.18,408.80 1804.04,408.55 1804.75,409.09 1805.32,410.41"/>
    </edge>

    <edge id="-261073253#1" from="2612160580" to="357310957" name="Rákóczi út" priority="11" type="highway.secondary">
        <lane id="-261073253#1_0" index="0" disallow="tram rail_urban rail rail_electric rail_fast ship" speed="13.89" length="50.76" shape="1479.30,703.17 1428.58,700.99">
            <param key="origId" value="261073253"/>
        </lane>
        <lane id="-261073253#1_1" index="1" disallow="tram rail_urban rail rail_electric rail_fast ship" speed="13.89" length="50.76" shape="1479.44,699.97 1428.72,697.79">
            <param key="origId" value="261073253"/>
        </lane>
        <param key="origTo" value="25545437"/>
    </edge>
    <edge id="-261073253#2" from="North_West_TL" to="2612160580" name="Rákóczi út" priority="11" type="highway.secondary" shape="1554.38,705.44 1479.67,698.38">
        <lane id="-261073253#2_0" index="0" disallow="tram rail_urban rail rail_electric rail_fast ship" speed="13.89" length="64.89" shape="1543.98,709.28 1479.38,703.17">
            <param key="origId" value="261073253"/>
        </lane>
        <lane id="-261073253#2_1" index="1" disallow="tram rail_urban rail rail_electric rail_fast ship" speed="13.89" length="64.89" shape="1544.29,706.09 1479.68,699.99">
            <param key="origId" value="261073253"/>
        </lane>
        <param key="origFrom" value="15475970"/>
    </edge>
    <edge id="-261073253#6" from="North_East_TL" to="North_West_TL" name="Rákóczi út" priority="11" type="highway.secondary" shape="1742.22,733.18 1559.62,706.28">
        <lane id="-261073253#6_0" index="0" disallow="tram rail_urban rail rail_electric rail_fast ship" speed="13.89" length="177.41" shape="1739.75,737.67 1564.23,711.81">
            <param key="origId" value="261073253"/>
        </lane>
        <lane id="-261073253#6_1" index="1" disallow="tram rail_urban rail rail_electric rail_fast ship" speed="13.89" length="177.41" shape="1740.21,734.50 1564.70,708.65">
            <param key="origId" value="261073253"/>
        </lane>
        <param key="origFrom" value="4165977745"/>
        <param key="origTo" value="15475972"/>
    </edge>
    <edge id="-41714395#3" from="South_West_TL" to="South_East_TL" name="Nagy Lajos király útja" priority="12" type="highway.primary" shape="1548.88,519.97 1770.78,514.11">
        <lane id="-41714395#3_0" index="0" disallow="tram rail_urban rail rail_electric rail_fast ship" speed="13.89" length="212.83" shape="1557.90,514.93 1770.65,509.31">
            <param key="origId" value="41714395"/>
        </lane>
        <lane id="-41714395#3_1" index="1" disallow="tram rail_urban rail rail_electric rail_fast ship" speed="13.89" length="212.83" shape="1557.98,518.13 1770.74,512.51">
            <param key="origId" value="41714395"/>
        </lane>
        <param key="origFrom" value="21616617"/>
        <param key="origTo" value="433854864"/>
    </edge>
    <edge id="-518338221#2" from="cluster_16723972_1795955697_3184279640_360354713_360354927_360354984_360354997" to="North_East_TL" name="Rákóczi út" priority="11" type="highway.secondary" shape="2078.16,815.09 1758.07,736.01">
        <lane id="-518338221#2_0" index="0" disallow="tram rail_urban rail rail_electric rail_fast ship" speed="13.89" length="327.48" shape="2077.01,819.75 1759.09,741.21">
            <param key="origId" value="518338221"/>
        </lane>
        <lane id="-518338221#2_1" index="1" disallow="tram rail_urban rail rail_electric rail_fast ship" speed="13.89" length="327.48" shape="2077.78,816.64 1759.86,738.10">
            <param key="origId" value="518338221"/>
        </lane>
        <param key="origFrom" value="360354713"/>
        <param key="origTo" value="21493514"/>
    </edge>
    <edge id="-707843640#1" from="cluster_17327344_4165977623" to="South_West_TL" name="Nagy Lajos király útja" priority="12" type="highway.primary" shape="1390.87,520.10 1542.44,520.50">