<?xml version="1.0" encoding="UTF-8"?>
<!-- generated on 2020-03-04 02:12:00.645840 by randomTrips.py v1_5_0+0000-3a3be608d2
  options: -n pecs.net.xml -e 150
-->
<routes xmlns:xsi="http://www.w3.org/2001/XMLSchema-instance" xsi:noNamespaceSchemaLocation="http://sumo.dlr.de/xsd/routes_file.xsd">
    <trip id="0" depart="0.00" from="32108145#0" to="3564425#0"/>
    <trip id="1" depart="1.00" from="-3543736#4" to="31454408#0"/>
    <trip id="2" depart="2.00" from="96627783#1" to="31454408#5"/>
    <trip id="3" depart="3.00" from="-4292808#1" to="8128416#2"/>
    <trip id="4" depart="4.00" from="-460070603#0" to="4306248"/>
    <trip id="5" depart="5.00" from="310977264#4" to="-578083757"/>
    <trip id="6" depart="6.00" from="4306325#0" to="gneE40"/>
    <trip id="7" depart="7.00" from="-41713705#3" to="-4059357#2"/>
    <trip id="8" depart="8.00" from="30390186#2" to="30390504#2"/>
    <trip id="9" depart="9.00" from="3544405#3" to="203800657#0"/>
    <trip id="10" depart="10.00" from="227960705" to="450844373#2"/>
    <trip id="11" depart="11.00" from="3533664#1" to="161976957#3"/>
    <trip id="12" depart="12.00" from="-204023175#9" to="gneE30"/>
    <trip id="13" depart="13.00" from="-3545731#13" to="-3543764#0"/>
    <trip id="14" depart="14.00" from="30390504#1" to="30388700#13"/>
    <trip id="15" depart="15.00" from="-gneE62" to="-4306245#1"/>
    <trip id="16" depart="16.00" from="-3564712#2" to="-3428712#2"/>
    <trip id="17" depart="17.00" from="-4292824#1" to="-204023175#5"/>
    <trip id="18" depart="18.00" from="-3543405#0" to="-83233168#1"/>
    <trip id="19" depart="19.00" from="310977260#0" to="261073253#6"/>
    <trip id="20" depart="20.00" from="206439477#1" to="-4292825#1"/>
    <trip id="21" depart="21.00" from="gneE62" to="-521085114#2"/>
    <trip id="22" depart="22.00" from="-3543735#10" to="-4077627#4"/>
    <trip id="23" depart="23.00" from="-3543405#1" to="-496134687"/>
    <trip id="24" depart="24.00" from="41714395#1" to="3545731#7"/>
    <trip id="25" depart="25.00" from="518338213#1" to="4306337#0"/>
    <trip id="26" depart="26.00" from="-41379268#1" to="-3543735#1"/>
    <trip id="27" depart="27.00" from="-707843635#2" to="4059340#0"/>
    <trip id="28" depart="28.00" from="-86318420#0" to="30388316#5"/>
    <trip id="29" depart="29.00" from="gneE42" to="-450844365#1"/>
    <trip id="30" depart="30.00" from="86318391#0" to="30388700#2"/>
    <trip id="31" depart="31.00" from="30492393#3" to="3543405#3"/>
    <trip id="32" depart="32.00" from="30390186#1" to="518338142#0"/>
    <trip id="33" depart="33.00" from="3543764#2" to="439400436#2"/>
    <trip id="34" depart="34.00" from="3564712#12" to="409267011#1"/>
    <trip id="35" depart="35.00" from="3212111#4" to="3564713#0"/>
    <trip id="36" depart="36.00" from="-3566536#3" to="141121324#1"/>
    <trip id="37" depart="37.00" from="3544900#0" to="31454408#5"/>
    <trip id="38" depart="38.00" from="86318391#4" to="3429498#0"/>
    <trip id="39" depart="39.00" from="96129196#1" to="41713705#4"/>
    <trip id="40" depart="40.00" from="8084379#1" to="8084464"/>
    <trip id="41" depart="41.00" from="3543734#8" to="4292824#1"/>
    <trip id="42" depart="42.00" from="4059371#1" to="310977264#1"/>
    <trip id="43" depart="43.00" from="31454408#5" to="83233171#1"/>
    <trip id="44" depart="44.00" from="281999510#5" to="-312555439"/>
    <trip id="45" depart="45.00" from="310977264#1" to="8084550#1"/>
    <trip id="46" depart="46.00" from="4292808#5" to="-261403127"/>
    <trip id="47" depart="47.00" from="-30390504#2" to="-32108470#5"/>
    <trip id="48" depart="48.00" from="-gneE52" to="-3428715#5"/>
    <trip id="49" depart="49.00" from="30390599" to="-450844377"/>
    <trip id="50" depart="50.00" from="-41379268#0" to="-438518166#0"/>
    <trip id="51" depart="51.00" from="-3987275#1" to="141121329#8"/>
    <trip id="52" depart="52.00" from="3564936#0" to="3543405#1"/>
    <trip id="53" depart="53.00" from="31900910" to="8084550#14"/>
    <trip id="54" depart="54.00" from="30492393#4" to="409267009#1"/>
    <trip id="55" depart="55.00" from="-41714325#2" to="261070786"/>
    <trip id="56" depart="56.00" from="-203800657#2" to="30389263#11"/>
    <trip id="57" depart="57.00" from="-51722082#4" to="-204023175#7"/>
    <trip id="58" depart="58.00" from="3429496#5" to="-4292824#1"/>
    <trip id="59" depart="59.00" from="3543735#4" to="-3428715#9"/>
    <trip id="60" depart="60.00" from="-3543404#4" to="-3543734#0"/>
    <trip id="61" depart="61.00" from="128511208#1" to="371850775#3"/>
    <trip id="62" depart="62.00" from="-371850775#3" to="-41379265#1"/>
    <trip id="63" depart="63.00" from="385635621#4" to="439400436#3"/>
    <trip id="64" depart="64.00" from="4059371#7" to="83233169"/>
    <trip id="65" depart="65.00" from="4059015#2" to="-439400436#3"/>
    <trip id="66" depart="66.00" from="-3544067#2" to="8084550#12"/>
    <trip id="67" depart="67.00" from="3543405#3" to="4292807#2"/>
    <trip id="68" depart="68.00" from="188977643#0" to="-690945807"/>
    <trip id="69" depart="69.00" from="4292821#1" to="-450844384#0"/>
    <trip id="70" depart="70.00" from="30389263#9" to="8128419#0"/>
    <trip id="71" depart="71.00" from="30723557#1" to="gneE54"/>
    <trip id="72" depart="72.00" from="-4292808#5" to="518338143"/>
    <trip id="73" depart="73.00" from="30723584#1" to="4292813#2"/>
    <trip id="74" depart="74.00" from="-690945808" to="30492973#2"/>
    <trip id="75" depart="75.00" from="-41854046#0" to="-460070603#0"/>
    <trip id="76" depart="76.00" from="32108470#1" to="-4059357#2"/>
    <trip id="77" depart="77.00" from="161976957#0" to="585198592#3"/>
    <trip id="78" depart="78.00" from="196968680#1" to="-86318420#0"/>
    <trip id="79" depart="79.00" from="30388846#0" to="4075399#2"/>
    <trip id="80" depart="80.00" from="gneE37" to="8084550#1"/>
    <trip id="81" depart="81.00" from="-3545731#14" to="-3543405#1"/>
    <trip id="82" depart="82.00" from="244422728#8" to="-141121329#4"/>
    <trip id="83" depart="83.00" from="204023175#3" to="30669718#8"/>
    <trip id="84" depart="84.00" from="37103421#1" to="-96852493"/>
    <trip id="85" depart="85.00" from="3544067#1" to="96636811#0"/>
    <trip id="86" depart="86.00" from="-707843635#5" to="261073253#1"/>
    <trip id="87" depart="87.00" from="3543764#0" to="206439477#1"/>
    <trip id="88" depart="88.00" from="4292810#2" to="30492973#3"/>
    <trip id="89" depart="89.00" from="-206439477#1" to="450844365#0"/>
    <trip id="90" depart="90.00" from="-4306333#0" to="-160229390"/>
    <trip id="91" depart="91.00" from="3533664#2" to="497167475#2"/>
    <trip id="92" depart="92.00" from="3545731#1" to="4306325#0"/>
    <trip id="93" depart="93.00" from="4059103#1" to="-41713705#5"/>
    <trip id="94" depart="94.00" from="-281999509#5" to="637287516#1"/>
    <trip id="95" depart="95.00" from="30491131#3" to="3545039#0"/>
    <trip id="96" depart="96.00" from="206439200#3" to="31900919#1"/>
    <trip id="97" depart="97.00" from="gneE5" to="8084379#0"/>
    <trip id="98" depart="98.00" from="160229390" to="gneE42"/>
    <trip id="99" depart="99.00" from="-3428715#5" to="-gneE37"/>
    <trip id="100" depart="100.00" from="-3429498#4" to="-4292807#3"/>
    <trip id="101" depart="101.00" from="-707843642#5" to="4068215#1"/>
    <trip id="102" depart="102.00" from="30388700#11" to="31900919#0"/>
    <trip id="103" depart="103.00" from="141121329#6" to="-438735323"/>
    <trip id="104" depart="104.00" from="310977264#6" to="371850775#2"/>
    <trip id="105" depart="105.00" from="4292822#1" to="-gneE40"/>
    <trip id="106" depart="106.00" from="30492973#3" to="-96695709#0"/>
    <trip id="107" depart="107.00" from="3545731#4" to="-gneE51"/>
    <trip id="108" depart="108.00" from="-4292809#4" to="30888916"/>
    <trip id="109" depart="109.00" from="gneE43" to="-3551813"/>
    <trip id="110" depart="110.00" from="518338212" to="83233174#0"/>
    <trip id="111" depart="111.00" from="4292809#4" to="4292826#0"/>
    <trip id="112" depart="112.00" from="83233168#3" to="-8128416#0"/>
    <trip id="113" depart="113.00" from="-4292826#0" to="4059382#0"/>
    <trip id="114" depart="114.00" from="-4292808#1" to="-3544067#8"/>
    <trip id="115" depart="115.00" from="-4292840#1" to="30388700#2"/>
    <trip id="116" depart="116.00" from="30492307#1" to="96636811#1"/>
    <trip id="117" depart="117.00" from="4292812#1" to="707843637#3"/>
    <trip id="118" depart="118.00" from="-86318397#0" to="4292807#3"/>
    <trip id="119" depart="119.00" from="3543764#0" to="-gneE35"/>
    <trip id="120" depart="120.00" from="128511208#1" to="4059357#2"/>
    <trip id="121" depart="121.00" from="-3987499#4" to="-3543404#4"/>
    <trip id="122" depart="122.00" from="3533664#7" to="-41714395#1"/>
    <trip id="123" depart="123.00" from="4292827#1" to="83233168#1"/>
    <trip id="124" depart="124.00" from="3545731#16" to="3543736#0"/>
    <trip id="125" depart="125.00" from="-409267011#0" to="8084550#11"/>
    <trip id="126" depart="126.00" from="3987275#0" to="4306314#4"/>
    <trip id="127" depart="127.00" from="4292822#5" to="4292822#3"/>
    <trip id="128" depart="128.00" from="30493146#1" to="-3428715#7"/>
    <trip id="129" depart="129.00" from="-4292824#1" to="3564712#4"/>
    <trip id="130" depart="130.00" from="3551983#1" to="4186698#1"/>
    <trip id="131" depart="131.00" from="3543405#3" to="3544407#1"/>
    <trip id="132" depart="132.00" from="-312555435" to="96821042#0"/>
    <trip id="133" depart="133.00" from="30492393#3" to="3545731#17"/>
    <trip id="134" depart="134.00" from="4292807#11" to="-3429498#4"/>
    <trip id="135" depart="135.00" from="30388951#1" to="83233172#1"/>
    <trip id="136" depart="136.00" from="3212111#3" to="-gneE27"/>
    <trip id="137" depart="137.00" from="gneE2" to="3544365#1"/>
    <trip id="138" depart="138.00" from="-51722082#15" to="51722082#7"/>
    <trip id="139" depart="139.00" from="31454408#3" to="-3543405#2"/>
    <trip id="140" depart="140.00" from="-450844373#2" to="-96127758#1"/>
    <trip id="141" depart="141.00" from="4059382#1" to="-3429496#2"/>
    <trip id="142" depart="142.00" from="-30492393#3" to="-143853846#1"/>
    <trip id="143" depart="143.00" from="4292808#2" to="-3429496#5"/>
    <trip id="144" depart="144.00" from="244422728#5" to="169320759#1"/>
    <trip id="145" depart="145.00" from="3428712#0" to="-4292809#7"/>
    <trip id="146" depart="146.00" from="-4068215#0" to="-gneE16"/>
    <trip id="147" depart="147.00" from="-41802370#1" to="-697562813#2"/>
    <trip id="148" depart="148.00" from="-41713705#4" to="3543764#3"/>
    <trip id="149" depart="149.00" from="281999509#5" to="-518338142#5"/>
</routes>
