<?xml version="1.0" encoding="UTF-8"?>

<!-- generated on 03/27/20 13:21:15 by Eclipse SUMO netedit Version 1.5.0
<configuration xmlns:xsi="http://www.w3.org/2001/XMLSchema-instance" xsi:noNamespaceSchemaLocation="http://sumo.dlr.de/xsd/netconvertConfiguration.xsd">

    <input>
        <sumo-net-file value="C:\PythonProjects\SUMO%20Projects\Projects\Onlab_Cars\pecs.net.xml"/>
    </input>

    <output>
        <output-file value="C:\PythonProjects\SUMO%20Projects\Projects\Onlab_Cars\pecs.net.xml"/>
    </output>

    <processing>
        <geometry.min-radius.fix.railways value="false"/>
        <geometry.max-grade.fix value="false"/>
        <offset.disable-normalization value="true"/>
        <lefthand value="false"/>
    </processing>

    <junctions>
        <no-turnarounds value="true"/>
        <junctions.corner-detail value="5"/>
        <junctions.limit-turn-speed value="5.5"/>
        <rectangular-lane-cut value="false"/>
    </junctions>

    <pedestrian>
        <walkingareas value="false"/>
    </pedestrian>

    <report>
        <aggregate-warnings value="5"/>
    </report>

</configuration>
-->

<net version="1.3" junctionCornerDetail="5" limitTurnSpeed="5.50" xmlns:xsi="http://www.w3.org/2001/XMLSchema-instance" xsi:noNamespaceSchemaLocation="http://sumo.dlr.de/xsd/net_file.xsd">

    <location netOffset="-283897.89,-5104741.59" convBoundary="18.97,176.77,2780.71,2486.58" origBoundary="18.205319,46.062489,18.243264,46.084500" projParameter="+proj=utm +zone=34 +ellps=WGS84 +datum=WGS84 +units=m +no_defs"/>

    <type id="highway.bridleway" priority="1" numLanes="1" speed="2.78" allow="pedestrian" oneway="1" width="2.00"/>
    <type id="highway.bus_guideway" priority="1" numLanes="1" speed="27.78" allow="bus" oneway="1"/>
    <type id="highway.cycleway" priority="1" numLanes="1" speed="8.33" allow="bicycle" oneway="0" width="1.00"/>
    <type id="highway.footway" priority="1" numLanes="1" speed="2.78" allow="pedestrian" oneway="1" width="2.00"/>
    <type id="highway.ford" priority="1" numLanes="1" speed="2.78" allow="army" oneway="0"/>
    <type id="highway.living_street" priority="2" numLanes="1" speed="2.78" disallow="tram rail_urban rail rail_electric rail_fast ship" oneway="0"/>
    <type id="highway.motorway" priority="14" numLanes="2" speed="39.44" allow="private emergency authority army vip passenger hov taxi bus coach delivery truck trailer motorcycle evehicle custom1 custom2" oneway="1"/>
    <type id="highway.motorway_link" priority="9" numLanes="1" speed="22.22" allow="private emergency authority army vip passenger hov taxi bus coach delivery truck trailer motorcycle evehicle custom1 custom2" oneway="1"/>
    <type id="highway.path" priority="1" numLanes="1" speed="2.78" allow="pedestrian bicycle" oneway="1" width="2.00"/>
    <type id="highway.pedestrian" priority="1" numLanes="1" speed="2.78" allow="pedestrian" oneway="1" width="2.00"/>
    <type id="highway.primary" priority="12" numLanes="2" speed="27.78" disallow="tram rail_urban rail rail_electric rail_fast ship" oneway="0"/>
    <type id="highway.primary_link" priority="7" numLanes="1" speed="22.22" disallow="tram rail_urban rail rail_electric rail_fast ship" oneway="0"/>
    <type id="highway.raceway" priority="15" numLanes="2" speed="83.33" allow="vip" oneway="0"/>
    <type id="highway.residential" priority="3" numLanes="1" speed="13.89" disallow="tram rail_urban rail rail_electric rail_fast ship" oneway="0"/>
    <type id="highway.secondary" priority="11" numLanes="1" speed="27.78" disallow="tram rail_urban rail rail_electric rail_fast ship" oneway="0"/>
    <type id="highway.secondary_link" priority="6" numLanes="1" speed="22.22" disallow="tram rail_urban rail rail_electric rail_fast ship" oneway="0"/>
    <type id="highway.service" priority="1" numLanes="1" speed="5.56" allow="pedestrian delivery bicycle" oneway="0"/>
    <type id="highway.stairs" priority="1" numLanes="1" speed="1.39" allow="pedestrian" oneway="1" width="2.00"/>
    <type id="highway.step" priority="1" numLanes="1" speed="1.39" allow="pedestrian" oneway="1" width="2.00"/>
    <type id="highway.steps" priority="1" numLanes="1" speed="1.39" allow="pedestrian" oneway="1" width="2.00"/>
    <type id="highway.tertiary" priority="10" numLanes="1" speed="22.22" disallow="tram rail_urban rail rail_electric rail_fast ship" oneway="0"/>
    <type id="highway.tertiary_link" priority="5" numLanes="1" speed="22.22" disallow="tram rail_urban rail rail_electric rail_fast ship" oneway="0"/>
    <type id="highway.track" priority="1" numLanes="1" speed="5.56" disallow="tram rail_urban rail rail_electric rail_fast ship" oneway="0"/>
    <type id="highway.trunk" priority="13" numLanes="2" speed="27.78" disallow="pedestrian bicycle tram rail_urban rail rail_electric rail_fast ship" oneway="0"/>
    <type id="highway.trunk_link" priority="8" numLanes="1" speed="22.22" disallow="pedestrian bicycle tram rail_urban rail rail_electric rail_fast ship" oneway="0"/>
    <type id="highway.unclassified" priority="4" numLanes="1" speed="13.89" disallow="tram rail_urban rail rail_electric rail_fast ship" oneway="0"/>
    <type id="highway.unsurfaced" priority="1" numLanes="1" speed="8.33" disallow="tram rail_urban rail rail_electric rail_fast ship" oneway="0"/>
    <type id="railway.highspeed" priority="21" numLanes="1" speed="69.44" allow="rail_fast" oneway="1"/>
    <type id="railway.light_rail" priority="19" numLanes="1" speed="27.78" allow="rail_urban" oneway="1"/>
    <type id="railway.preserved" priority="16" numLanes="1" speed="27.78" allow="rail" oneway="1"/>
    <type id="railway.rail" priority="20" numLanes="1" speed="44.44" allow="rail" oneway="1"/>
    <type id="railway.subway" priority="18" numLanes="1" speed="27.78" allow="rail_urban" oneway="1"/>
    <type id="railway.tram" priority="17" numLanes="1" speed="13.89" allow="tram" oneway="1"/>

    <edge id=":1116874166_0" function="internal">
        <lane id=":1116874166_0_0" index="0" disallow="tram rail_urban rail rail_electric rail_fast ship" speed="13.89" length="0.31" shape="1962.58,1287.24 1962.53,1287.54"/>
    </edge>
    <edge id=":1116874166_1" function="internal">
        <lane id=":1116874166_1_0" index="0" disallow="tram rail_urban rail rail_electric rail_fast ship" speed="3.65" length="2.34" shape="1962.58,1287.24 1961.60,1288.29 1960.75,1288.56"/>
    </edge>
    <edge id=":1116874166_4" function="internal">
        <lane id=":1116874166_4_0" index="0" disallow="tram rail_urban rail rail_electric rail_fast ship" speed="3.65" length="2.34" shape="1960.75,1288.56 1960.02,1288.04 1959.42,1286.73"/>
    </edge>
    <edge id=":1116874166_2" function="internal">
        <lane id=":1116874166_2_0" index="0" disallow="tram rail_urban rail rail_electric rail_fast ship" speed="13.89" length="0.28" shape="1959.38,1287.01 1959.42,1286.73"/>
    </edge>
    <edge id=":1116874166_3" function="internal">
        <lane id=":1116874166_3_0" index="0" disallow="tram rail_urban rail rail_electric rail_fast ship" speed="3.65" length="2.34" shape="1959.38,1287.01 1960.37,1285.96 1961.22,1285.70"/>
    </edge>
    <edge id=":1116874166_5" function="internal">
        <lane id=":1116874166_5_0" index="0" disallow="tram rail_urban rail rail_electric rail_fast ship" speed="3.65" length="2.34" shape="1961.22,1285.70 1961.94,1286.23 1962.53,1287.54"/>
    </edge>
    <edge id=":1119197058_0" function="internal">
        <lane id=":1119197058_0_0" index="0" disallow="tram rail_urban rail rail_electric rail_fast ship" speed="13.89" length="0.30" shape="969.89,739.38 969.89,739.08"/>
    </edge>
    <edge id=":1121773054_0" function="internal">
        <lane id=":1121773054_0_0" index="0" disallow="tram rail_urban rail rail_electric rail_fast ship" speed="11.11" length="3.52" shape="1868.96,1630.29 1869.91,1630.51 1870.48,1631.05 1871.05,1631.59 1872.00,1631.82"/>
    </edge>
    <edge id=":1121773054_1" function="internal">
        <lane id=":1121773054_1_0" index="0" disallow="tram rail_urban rail rail_electric rail_fast ship" speed="3.65" length="4.67" shape="1868.96,1630.29 1870.18,1631.06 1870.60,1631.85 1870.22,1632.66 1869.04,1633.49"/>
    </edge>
    <edge id=":1161438614_0" function="internal">
        <lane id=":1161438614_0_0" index="0" disallow="tram rail_urban rail rail_electric rail_fast ship" speed="13.89" length="0.23" shape="465.55,1251.17 465.35,1251.09"/>
    </edge>
    <edge id=":1161438614_1" function="internal">
        <lane id=":1161438614_1_0" index="0" disallow="tram rail_urban rail rail_electric rail_fast ship" speed="3.65" length="2.34" shape="465.55,1251.17 464.75,1249.97 464.68,1249.08"/>
    </edge>
    <edge id=":1161438614_4" function="internal">
        <lane id=":1161438614_4_0" index="0" disallow="tram rail_urban rail rail_electric rail_fast ship" speed="3.65" length="2.34" shape="464.68,1249.08 465.36,1248.49 466.77,1248.21"/>
    </edge>
    <edge id=":1161438614_2" function="internal">
        <lane id=":1161438614_2_0" index="0" disallow="tram rail_urban rail rail_electric rail_fast ship" speed="13.89" length="0.31" shape="466.49,1248.10 466.77,1248.21"/>
    </edge>
    <edge id=":1161438614_3" function="internal">
        <lane id=":1161438614_3_0" index="0" disallow="tram rail_urban rail rail_electric rail_fast ship" speed="3.65" length="2.34" shape="466.49,1248.10 467.32,1249.27 467.41,1250.16"/>
    </edge>
    <edge id=":1161438614_5" function="internal">
        <lane id=":1161438614_5_0" index="0" disallow="tram rail_urban rail rail_electric rail_fast ship" speed="3.65" length="2.34" shape="467.41,1250.16 466.75,1250.77 465.35,1251.09"/>
    </edge>
    <edge id=":1259548643_0" function="internal">
        <lane id=":1259548643_0_0" index="0" disallow="tram rail_urban rail rail_electric rail_fast ship" speed="22.22" length="0.32" shape="375.88,1569.57 375.57,1569.52"/>
    </edge>
    <edge id=":1259548643_1" function="internal">
        <lane id=":1259548643_1_0" index="0" disallow="tram rail_urban rail rail_electric rail_fast ship" speed="3.65" length="2.34" shape="375.88,1569.57 374.79,1568.63 374.49,1567.79"/>
    </edge>
    <edge id=":1259548643_4" function="internal">
        <lane id=":1259548643_4_0" index="0" disallow="tram rail_urban rail rail_electric rail_fast ship" speed="3.65" length="2.34" shape="374.49,1567.79 374.98,1567.04 376.27,1566.39"/>
    </edge>
    <edge id=":1259548643_2" function="internal">
        <lane id=":1259548643_2_0" index="0" disallow="tram rail_urban rail rail_electric rail_fast ship" speed="22.22" length="0.11" shape="376.16,1566.38 376.27,1566.39"/>
    </edge>
    <edge id=":1259548643_3" function="internal">
        <lane id=":1259548643_3_0" index="0" disallow="tram rail_urban rail rail_electric rail_fast ship" speed="3.65" length="2.34" shape="376.16,1566.38 377.19,1567.39 377.44,1568.25"/>
    </edge>
    <edge id=":1259548643_5" function="internal">
        <lane id=":1259548643_5_0" index="0" disallow="tram rail_urban rail rail_electric rail_fast ship" speed="3.65" length="2.34" shape="377.44,1568.25 376.90,1568.96 375.57,1569.52"/>
    </edge>
    <edge id=":1259548928_0" function="internal">
        <lane id=":1259548928_0_0" index="0" disallow="tram rail_urban rail rail_electric rail_fast ship" speed="13.89" length="0.10" shape="993.75,705.13 993.75,705.13"/>
    </edge>
    <edge id=":1364186514_0" function="internal">
        <lane id=":1364186514_0_0" index="0" disallow="tram rail_urban rail rail_electric rail_fast ship" speed="13.89" length="0.10" shape="1663.27,382.69 1663.20,382.67"/>
    </edge>
    <edge id=":1364186514_1" function="internal">
        <lane id=":1364186514_1_0" index="0" disallow="tram rail_urban rail rail_electric rail_fast ship" speed="3.65" length="2.34" shape="1663.27,382.69 1662.27,381.65 1662.06,380.78"/>
    </edge>
    <edge id=":1364186514_4" function="internal">
        <lane id=":1364186514_4_0" index="0" disallow="tram rail_urban rail rail_electric rail_fast ship" speed="3.65" length="2.34" shape="1662.06,380.78 1662.62,380.09 1663.97,379.57"/>
    </edge>
    <edge id=":1364186514_2" function="internal">
        <lane id=":1364186514_2_0" index="0" disallow="tram rail_urban rail rail_electric rail_fast ship" speed="13.89" length="0.10" shape="1664.04,379.59 1663.97,379.57"/>
    </edge>
    <edge id=":1364186514_3" function="internal">
        <lane id=":1364186514_3_0" index="0" disallow="tram rail_urban rail rail_electric rail_fast ship" speed="3.65" length="2.34" shape="1664.04,379.59 1664.99,380.67 1665.16,381.55"/>
    </edge>
    <edge id=":1364186514_5" function="internal">
        <lane id=":1364186514_5_0" index="0" disallow="tram rail_urban rail rail_electric rail_fast ship" speed="3.65" length="2.34" shape="1665.16,381.55 1664.57,382.22 1663.20,382.67"/>
    </edge>
    <edge id=":1544768756_0" function="internal">
        <lane id=":1544768756_0_0" index="0" disallow="tram rail_urban rail rail_electric rail_fast ship" speed="3.65" length="4.67" shape="1271.71,652.82 1270.87,654.00 1270.06,654.37 1269.27,653.94 1268.51,652.72"/>
    </edge>
    <edge id=":1544768794_0" function="internal">
        <lane id=":1544768794_0_0" index="0" disallow="tram rail_urban rail rail_electric rail_fast ship" speed="6.50" length="9.03" shape="1209.67,842.06 1209.24,839.62 1208.14,837.90 1206.36,836.91 1203.90,836.64"/>
    </edge>
    <edge id=":1544768794_1" function="internal">
        <lane id=":1544768794_1_0" index="0" disallow="tram rail_urban rail rail_electric rail_fast ship" speed="3.65" length="2.56" shape="1209.67,842.06 1210.43,840.83 1211.22,840.41 1211.42,840.50"/>
    </edge>
    <edge id=":1544768794_4" function="internal">
        <lane id=":1544768794_4_0" index="0" disallow="tram rail_urban rail rail_electric rail_fast ship" speed="3.65" length="2.12" shape="1211.42,840.50 1212.03,840.79 1212.87,841.96"/>
    </edge>
    <edge id=":1544768794_2" function="internal">
        <lane id=":1544768794_2_0" index="0" disallow="tram rail_urban rail rail_electric rail_fast ship" speed="6.50" length="9.03" shape="1218.30,836.21 1215.86,836.63 1214.14,837.72 1213.14,839.50 1212.87,841.96"/>
    </edge>
    <edge id=":1544768794_3" function="internal">
        <lane id=":1544768794_3_0" index="0" disallow="tram rail_urban rail rail_electric rail_fast ship" speed="13.89" length="14.41" shape="1218.30,836.21 1203.90,836.64"/>
    </edge>
    <edge id=":15475925_0" function="internal">
        <lane id=":15475925_0_0" index="0" disallow="tram rail_urban rail rail_electric rail_fast ship" speed="22.22" length="0.28" shape="477.10,1567.02 477.02,1567.00 476.96,1566.99 476.91,1566.99 476.82,1566.98"/>
    </edge>
    <edge id=":15475925_1" function="internal">
        <lane id=":15475925_1_0" index="0" disallow="tram rail_urban rail rail_electric rail_fast ship" speed="3.65" length="2.34" shape="477.10,1567.02 476.11,1565.98 475.89,1565.11"/>
    </edge>
    <edge id=":15475925_4" function="internal">
        <lane id=":15475925_4_0" index="0" disallow="tram rail_urban rail rail_electric rail_fast ship" speed="3.65" length="2.34" shape="475.89,1565.11 476.46,1564.42 477.81,1563.90"/>
    </edge>
    <edge id=":15475925_2" function="internal">
        <lane id=":15475925_2_0" index="0" disallow="tram rail_urban rail rail_electric rail_fast ship" speed="22.22" length="0.84" shape="476.97,1563.79 477.22,1563.80 477.39,1563.82 477.56,1563.85 477.81,1563.90"/>
    </edge>
    <edge id=":15475925_3" function="internal">
        <lane id=":15475925_3_0" index="0" disallow="tram rail_urban rail rail_electric rail_fast ship" speed="3.65" length="2.34" shape="476.97,1563.79 478.14,1564.64 478.50,1565.46"/>
    </edge>
    <edge id=":15475925_5" function="internal">
        <lane id=":15475925_5_0" index="0" disallow="tram rail_urban rail rail_electric rail_fast ship" speed="3.65" length="2.34" shape="478.50,1565.46 478.06,1566.24 476.82,1566.98"/>
    </edge>
    <edge id=":15475936_0" function="internal">
        <lane id=":15475936_0_0" index="0" disallow="tram rail_urban rail rail_electric rail_fast ship" speed="6.09" length="9.68" shape="1169.37,1829.36 1169.72,1832.14 1169.02,1834.07 1167.29,1835.16 1164.52,1835.40"/>
    </edge>
    <edge id=":15475936_1" function="internal">
        <lane id=":15475936_1_0" index="0" disallow="tram rail_urban rail rail_electric rail_fast ship" speed="3.91" length="3.23" shape="1164.67,1832.20 1165.59,1832.12 1166.17,1831.76 1166.40,1831.12 1166.28,1830.19"/>
    </edge>
    <edge id=":15475936_2" function="internal">
        <lane id=":15475936_2_0" index="0" disallow="tram rail_urban rail rail_electric rail_fast ship" speed="3.65" length="4.67" shape="1164.67,1832.20 1165.83,1833.06 1166.19,1833.87 1165.76,1834.65 1164.52,1835.40"/>
    </edge>
    <edge id=":15475949_0" function="internal">
        <lane id=":15475949_0_0" index="0" disallow="tram rail_urban rail rail_electric rail_fast ship" speed="13.89" length="12.70" shape="1224.71,1405.86 1221.53,1404.70 1218.70,1403.83 1215.82,1403.15 1212.48,1402.54"/>
    </edge>
    <edge id=":15475949_1" function="internal">
        <lane id=":15475949_1_0" index="0" disallow="tram rail_urban rail rail_electric rail_fast ship" speed="8.02" length="5.43" shape="1224.71,1405.86 1221.57,1404.12 1220.40,1402.69"/>
    </edge>
    <edge id=":15475949_2" function="internal">
        <lane id=":15475949_2_0" index="0" disallow="tram rail_urban rail rail_electric rail_fast ship" speed="3.65" length="2.34" shape="1224.71,1405.86 1223.88,1404.68 1223.79,1403.79"/>
    </edge>
    <edge id=":15475949_9" function="internal">
        <lane id=":15475949_9_0" index="0" disallow="tram rail_urban rail rail_electric rail_fast ship" speed="8.02" length="7.83" shape="1220.40,1402.69 1219.64,1401.77 1218.92,1398.82 1219.40,1395.26"/>
    </edge>
    <edge id=":15475949_10" function="internal">
        <lane id=":15475949_10_0" index="0" disallow="tram rail_urban rail rail_electric rail_fast ship" speed="3.65" length="2.34" shape="1223.79,1403.79 1224.45,1403.19 1225.86,1402.87"/>
    </edge>
    <edge id=":15475949_3" function="internal">
        <lane id=":15475949_3_0" index="0" disallow="tram rail_urban rail rail_electric rail_fast ship" speed="6.52" length="8.44" shape="1222.48,1396.13 1222.17,1398.39 1222.63,1400.27 1223.86,1401.76 1225.86,1402.87"/>
    </edge>
    <edge id=":15475949_4" function="internal">
        <lane id=":15475949_4_0" index="0" disallow="tram rail_urban rail rail_electric rail_fast ship" speed="8.08" length="13.23" shape="1222.48,1396.13 1221.04,1399.41 1218.90,1401.58 1216.04,1402.62 1212.48,1402.54"/>
    </edge>
    <edge id=":15475949_5" function="internal">
        <lane id=":15475949_5_0" index="0" disallow="tram rail_urban rail rail_electric rail_fast ship" speed="3.65" length="2.55" shape="1222.48,1396.13 1221.38,1397.06 1220.51,1397.23 1220.35,1397.09"/>
    </edge>
    <edge id=":15475949_11" function="internal">
        <lane id=":15475949_11_0" index="0" disallow="tram rail_urban rail rail_electric rail_fast ship" speed="3.65" length="2.12" shape="1220.35,1397.09 1219.84,1396.63 1219.40,1395.26"/>
    </edge>
    <edge id=":15475949_6" function="internal">
        <lane id=":15475949_6_0" index="0" disallow="tram rail_urban rail rail_electric rail_fast ship" speed="6.59" length="8.48" shape="1213.00,1399.38 1215.28,1399.43 1217.10,1398.76 1218.48,1397.37 1219.40,1395.26"/>
    </edge>
    <edge id=":15475949_7" function="internal">
        <lane id=":15475949_7_0" index="0" disallow="tram rail_urban rail rail_electric rail_fast ship" speed="13.89" length="13.35" shape="1213.00,1399.38 1216.43,1400.02 1219.53,1400.76 1222.58,1401.68 1225.86,1402.87"/>
    </edge>
    <edge id=":15475949_8" function="internal">
        <lane id=":15475949_8_0" index="0" disallow="tram rail_urban rail rail_electric rail_fast ship" speed="3.65" length="2.34" shape="1213.00,1399.38 1214.05,1400.37 1214.32,1401.22"/>
    </edge>
    <edge id=":15475949_12" function="internal">
        <lane id=":15475949_12_0" index="0" disallow="tram rail_urban rail rail_electric rail_fast ship" speed="3.65" length="2.34" shape="1214.32,1401.22 1213.80,1401.95 1212.48,1402.54"/>
    </edge>
    <edge id=":15475953_0" function="internal">
        <lane id=":15475953_0_0" index="0" disallow="tram rail_urban rail rail_electric rail_fast ship" speed="13.89" length="0.10" shape="1252.69,1281.62 1252.71,1281.53"/>
    </edge>
    <edge id=":15475953_1" function="internal">
        <lane id=":15475953_1_0" index="0" disallow="tram rail_urban rail rail_electric rail_fast ship" speed="3.65" length="2.34" shape="1252.69,1281.62 1251.57,1282.53 1250.69,1282.68"/>
    </edge>
    <edge id=":15475953_4" function="internal">
        <lane id=":15475953_4_0" index="0" disallow="tram rail_urban rail rail_electric rail_fast ship" speed="3.65" length="2.34" shape="1250.69,1282.68 1250.04,1282.06 1249.63,1280.68"/>
    </edge>
    <edge id=":15475953_2" function="internal">
        <lane id=":15475953_2_0" index="0" disallow="tram rail_urban rail rail_electric rail_fast ship" speed="13.89" length="0.10" shape="1249.61,1280.77 1249.63,1280.68"/>
    </edge>
    <edge id=":15475953_3" function="internal">
        <lane id=":15475953_3_0" index="0" disallow="tram rail_urban rail rail_electric rail_fast ship" speed="3.65" length="2.34" shape="1249.61,1280.77 1250.67,1279.80 1251.54,1279.60"/>
    </edge>
    <edge id=":15475953_5" function="internal">
        <lane id=":15475953_5_0" index="0" disallow="tram rail_urban rail rail_electric rail_fast ship" speed="3.65" length="2.34" shape="1251.54,1279.60 1252.22,1280.17 1252.71,1281.53"/>
    </edge>
    <edge id=":15475964_0" function="internal">
        <lane id=":15475964_0_0" index="0" disallow="tram rail_urban rail rail_electric rail_fast ship" speed="13.89" length="8.13" shape="1508.48,1130.50 1506.09,1130.34 1504.48,1129.90 1502.86,1129.48 1500.47,1129.37"/>
    </edge>
    <edge id=":15475964_1" function="internal">
        <lane id=":15475964_1_0" index="0" disallow="tram rail_urban rail rail_electric rail_fast ship" speed="13.89" length="9.27" shape="1508.48,1130.50 1506.01,1129.98 1504.62,1128.62 1503.25,1127.02 1500.87,1125.76"/>
    </edge>
    <edge id=":15475964_2" function="internal">
        <lane id=":15475964_2_0" index="0" disallow="tram rail_urban rail rail_electric rail_fast ship" speed="3.65" length="4.67" shape="1508.48,1130.50 1507.26,1129.73 1506.84,1128.94 1507.22,1128.13 1508.40,1127.30"/>
    </edge>
    <edge id=":15477363_0" function="internal">
        <lane id=":15477363_0_0" index="0" speed="8.00" length="14.09" shape="2649.82,1002.95 2650.14,999.11 2651.61,996.28 2654.23,994.46 2658.00,993.66"/>
    </edge>
    <edge id=":15477363_1" function="internal">
        <lane id=":15477363_1_0" index="0" speed="6.51" length="8.97" shape="2658.22,996.85 2655.82,997.36 2654.16,998.52 2653.22,1000.32 2653.02,1002.76"/>
    </edge>
    <edge id=":15477363_2" function="internal">
        <lane id=":15477363_2_0" index="0" disallow="tram rail_urban rail rail_electric rail_fast ship" speed="12.48" length="13.03" shape="2645.53,991.44 2648.43,993.13 2651.37,993.83 2654.50,993.89 2658.00,993.66"/>
    </edge>
    <edge id=":15477363_3" function="internal">
        <lane id=":15477363_3_0" index="0" disallow="tram rail_urban rail rail_electric rail_fast ship" speed="11.66" length="10.19" shape="2645.53,991.44 2648.68,994.25 2650.98,997.08 2652.03,999.14"/>
    </edge>
    <edge id=":15477363_4" function="internal">
        <lane id=":15477363_4_0" index="0" disallow="tram rail_urban rail rail_electric rail_fast ship" speed="11.66" length="3.78" shape="2652.03,999.14 2652.42,999.92 2653.02,1002.76"/>
    </edge>
    <edge id=":15488768_0" function="internal">
        <lane id=":15488768_0_0" index="0" disallow="tram rail_urban rail rail_electric rail_fast ship" speed="27.78" length="8.39" shape="2097.53,667.46 2097.69,665.07 2098.54,663.46 2099.35,661.85 2099.36,659.48"/>
    </edge>
    <edge id=":15488768_1" function="internal">
        <lane id=":15488768_1_0" index="0" disallow="tram rail_urban rail rail_electric rail_fast ship" speed="27.78" length="7.95" shape="2105.63,658.17 2107.03,666.09"/>
        <lane id=":15488768_1_1" index="1" disallow="tram rail_urban rail rail_electric rail_fast ship" speed="27.78" length="7.95" shape="2102.50,658.83 2103.86,666.55"/>
    </edge>
    <edge id=":15488776_0" function="internal">
        <lane id=":15488776_0_0" index="0" disallow="tram rail_urban rail rail_electric rail_fast ship" speed="6.44" length="9.03" shape="1928.83,790.64 1926.38,790.26 1924.41,790.77 1922.94,792.17 1921.96,794.45"/>
    </edge>
    <edge id=":15488776_1" function="internal">
        <lane id=":15488776_1_0" index="0" disallow="tram rail_urban rail rail_electric rail_fast ship" speed="13.89" length="14.46" shape="1928.83,790.64 1914.96,786.57"/>
    </edge>
    <edge id=":15488776_2" function="internal">
        <lane id=":15488776_2_0" index="0" disallow="tram rail_urban rail rail_electric rail_fast ship" speed="8.07" length="14.29" shape="1928.83,790.64 1925.27,788.98 1923.07,786.59 1922.23,783.48 1922.75,779.63"/>
    </edge>
    <edge id=":15488776_3" function="internal">
        <lane id=":15488776_3_0" index="0" disallow="tram rail_urban rail rail_electric rail_fast ship" speed="3.65" length="4.67" shape="1928.83,790.64 1927.92,789.53 1927.77,788.64 1928.39,788.00 1929.77,787.58"/>
    </edge>
    <edge id=":15488776_4" function="internal">
        <lane id=":15488776_4_0" index="0" disallow="tram rail_urban rail rail_electric rail_fast ship" speed="6.59" length="9.19" shape="1925.83,780.52 1925.50,782.98 1926.04,784.98 1927.46,786.51 1929.77,787.58"/>
    </edge>
    <edge id=":15488776_5" function="internal">
        <lane id=":15488776_5_0" index="0" disallow="tram rail_urban rail rail_electric rail_fast ship" speed="13.89" length="14.46" shape="1925.83,780.52 1921.96,794.45"/>
    </edge>
    <edge id=":15488776_6" function="internal">
        <lane id=":15488776_6_0" index="0" disallow="tram rail_urban rail rail_electric rail_fast ship" speed="8.01" length="5.84" shape="1925.83,780.52 1924.24,784.06 1922.81,785.40"/>
    </edge>
    <edge id=":15488776_7" function="internal">
        <lane id=":15488776_7_0" index="0" disallow="tram rail_urban rail rail_electric rail_fast ship" speed="3.65" length="2.34" shape="1925.83,780.52 1924.73,781.45 1923.85,781.61"/>
    </edge>
    <edge id=":15488776_16" function="internal">
        <lane id=":15488776_16_0" index="0" disallow="tram rail_urban rail rail_electric rail_fast ship" speed="8.01" length="8.33" shape="1922.81,785.40 1921.90,786.25 1918.81,787.09 1914.96,786.57"/>
    </edge>
    <edge id=":15488776_17" function="internal">
        <lane id=":15488776_17_0" index="0" disallow="tram rail_urban rail rail_electric rail_fast ship" speed="3.65" length="2.34" shape="1923.85,781.61 1923.19,781.01 1922.75,779.63"/>
    </edge>
    <edge id=":15488776_8" function="internal">
        <lane id=":15488776_8_0" index="0" disallow="tram rail_urban rail rail_electric rail_fast ship" speed="6.52" length="9.03" shape="1915.83,783.49 1918.28,783.82 1920.25,783.29 1921.74,781.89 1922.75,779.63"/>
    </edge>
    <edge id=":15488776_9" function="internal">
        <lane id=":15488776_9_0" index="0" disallow="tram rail_urban rail rail_electric rail_fast ship" speed="13.89" length="14.52" shape="1915.83,783.49 1929.77,787.58"/>
    </edge>
    <edge id=":15488776_10" function="internal">
        <lane id=":15488776_10_0" index="0" disallow="tram rail_urban rail rail_electric rail_fast ship" speed="8.06" length="14.28" shape="1915.83,783.49 1919.38,785.07 1921.58,787.42 1922.44,790.55 1921.96,794.45"/>
    </edge>
    <edge id=":15488776_11" function="internal">
        <lane id=":15488776_11_0" index="0" disallow="tram rail_urban rail rail_electric rail_fast ship" speed="3.65" length="4.67" shape="1915.83,783.49 1916.77,784.59 1916.94,785.47 1916.33,786.13 1914.96,786.57"/>
    </edge>
    <edge id=":15488776_12" function="internal">
        <lane id=":15488776_12_0" index="0" disallow="tram rail_urban rail rail_electric rail_fast ship" speed="6.58" length="9.17" shape="1918.87,793.62 1919.18,791.11 1918.63,789.09 1917.23,787.58 1914.96,786.57"/>
    </edge>
    <edge id=":15488776_13" function="internal">
        <lane id=":15488776_13_0" index="0" disallow="tram rail_urban rail rail_electric rail_fast ship" speed="13.89" length="14.52" shape="1918.87,793.62 1922.75,779.63"/>
    </edge>
    <edge id=":15488776_14" function="internal">
        <lane id=":15488776_14_0" index="0" disallow="tram rail_urban rail rail_electric rail_fast ship" speed="7.94" length="6.03" shape="1918.87,793.62 1920.42,790.00 1921.93,788.56"/>
    </edge>
    <edge id=":15488776_15" function="internal">
        <lane id=":15488776_15_0" index="0" disallow="tram rail_urban rail rail_electric rail_fast ship" speed="3.65" length="2.34" shape="1918.87,793.62 1919.95,792.67 1920.83,792.49"/>
    </edge>
    <edge id=":15488776_18" function="internal">
        <lane id=":15488776_18_0" index="0" disallow="tram rail_urban rail rail_electric rail_fast ship" speed="7.94" length="8.29" shape="1921.93,788.56 1922.76,787.78 1925.87,786.98 1929.77,787.58"/>
    </edge>
    <edge id=":15488776_19" function="internal">
        <lane id=":15488776_19_0" index="0" disallow="tram rail_urban rail rail_electric rail_fast ship" speed="3.65" length="2.34" shape="1920.83,792.49 1921.50,793.09 1921.96,794.45"/>
    </edge>