<?xml version="1.0" encoding="UTF-8"?>

<!-- generated on 02/26/20 17:18:14 by Eclipse SUMO netedit Version 1.5.0
<configuration xmlns:xsi="http://www.w3.org/2001/XMLSchema-instance" xsi:noNamespaceSchemaLocation="http://sumo.dlr.de/xsd/netconvertConfiguration.xsd">

    <output>
        <output-file value="C:\PythonProjects\Onlab_Cars\SUMO\test.net.xml"/>
    </output>

    <processing>
        <offset.disable-normalization value="true"/>
    </processing>

    <junctions>
        <no-turnarounds value="true"/>
    </junctions>

    <report>
        <aggregate-warnings value="5"/>
    </report>

</configuration>
-->

<net version="1.3" junctionCornerDetail="5" limitTurnSpeed="5.50" xmlns:xsi="http://www.w3.org/2001/XMLSchema-instance" xsi:noNamespaceSchemaLocation="http://sumo.dlr.de/xsd/net_file.xsd">

    <location netOffset="0.00,0.00" convBoundary="0.00,0.00,200.00,100.00" origBoundary="10000000000.00,10000000000.00,-10000000000.00,-10000000000.00" projParameter="!"/>

    <edge id=":gneJ2_0" function="internal">
        <lane id=":gneJ2_0_0" index="0" speed="6.08" length="7.74" shape="3.20,101.60 1.10,101.30 -0.40,100.40 -1.30,98.90 -1.60,96.80"/>
    </edge>
    <edge id=":gneJ2_1" function="internal">
        <lane id=":gneJ2_1_0" index="0" speed="3.90" length="2.58" shape="1.60,96.80 1.70,97.50 2.00,98.00 2.50,98.30 3.20,98.40"/>
    </edge>
    <edge id=":gneJ3_0" function="internal">
        <lane id=":gneJ3_0_0" index="0" speed="6.08" length="7.74" shape="-1.60,3.20 -1.30,1.10 -0.40,-0.40 1.10,-1.30 3.20,-1.60"/>
    </edge>
    <edge id=":gneJ3_1" function="internal">
        <lane id=":gneJ3_1_0" index="0" speed="3.90" length="2.58" shape="3.20,1.60 2.50,1.70 2.00,2.00 1.70,2.50 1.60,3.20"/>
    </edge>
    <edge id=":gneJ4_0" function="internal">
        <lane id=":gneJ4_0_0" index="0" speed="6.51" length="9.03" shape="98.40,7.20 98.05,4.75 97.00,3.00 95.25,1.95 92.80,1.60"/>
    </edge>
    <edge id=":gneJ4_1" function="internal">
        <lane id=":gneJ4_1_0" index="0" speed="8.00" length="14.19" shape="98.40,7.20 98.95,3.35 100.60,0.60 103.35,-1.05 107.20,-1.60"/>
    </edge>
    <edge id=":gneJ4_2" function="internal">
        <lane id=":gneJ4_2_0" index="0" speed="6.51" length="9.03" shape="107.20,1.60 104.75,1.95 103.00,3.00 101.95,4.75 101.60,7.20"/>
    </edge>
    <edge id=":gneJ4_3" function="internal">
        <lane id=":gneJ4_3_0" index="0" speed="13.89" length="14.40" shape="107.20,1.60 92.80,1.60"/>
    </edge>
    <edge id=":gneJ4_4" function="internal">
        <lane id=":gneJ4_4_0" index="0" speed="13.89" length="14.40" shape="92.80,-1.60 107.20,-1.60"/>
    </edge>
    <edge id=":gneJ4_5" function="internal">
        <lane id=":gneJ4_5_0" index="0" speed="8.00" length="5.93" shape="92.80,-1.60 96.65,-1.05 98.40,0.00"/>
    </edge>
    <edge id=":gneJ4_6" function="internal">
        <lane id=":gneJ4_6_0" index="0" speed="8.00" length="8.26" shape="98.40,0.00 99.40,0.60 101.05,3.35 101.60,7.20"/>
    </edge>
    <edge id=":gneJ5_0" function="internal">
        <lane id=":gneJ5_0_0" index="0" speed="13.89" length="14.40" shape="107.20,101.60 92.80,101.60"/>
    </edge>
    <edge id=":gneJ5_1" function="internal">
        <lane id=":gneJ5_1_0" index="0" speed="8.00" length="5.93" shape="107.20,101.60 103.35,101.05 101.60,100.00"/>
    </edge>
    <edge id=":gneJ5_6" function="internal">
        <lane id=":gneJ5_6_0" index="0" speed="8.00" length="8.26" shape="101.60,100.00 100.60,99.40 98.95,96.65 98.40,92.80"/>
    </edge>
    <edge id=":gneJ5_2" function="internal">
        <lane id=":gneJ5_2_0" index="0" speed="6.51" length="9.03" shape="101.60,92.80 101.95,95.25 103.00,97.00 104.75,98.05 107.20,98.40"/>
    </edge>
    <edge id=":gneJ5_3" function="internal">
        <lane id=":gneJ5_3_0" index="0" speed="8.00" length="14.19" shape="101.60,92.80 101.05,96.65 99.40,99.40 96.65,101.05 92.80,101.60"/>
    </edge>
    <edge id=":gneJ5_4" function="internal">
        <lane id=":gneJ5_4_0" index="0" speed="6.51" length="9.03" shape="92.80,98.40 95.25,98.05 97.00,97.00 98.05,95.25 98.40,92.80"/>
    </edge>
    <edge id=":gneJ5_5" function="internal">
        <lane id=":gneJ5_5_0" index="0" speed="13.89" length="14.40" shape="92.80,98.40 107.20,98.40"/>
    </edge>
    <edge id=":gneJ6_0" function="internal">
        <lane id=":gneJ6_0_0" index="0" speed="6.08" length="7.74" shape="201.60,96.80 201.30,98.90 200.40,100.40 198.90,101.30 196.80,101.60"/>
    </edge>
    <edge id=":gneJ6_1" function="internal">
        <lane id=":gneJ6_1_0" index="0" speed="3.90" length="2.58" shape="196.80,98.40 197.50,98.30 198.00,98.00 198.30,97.50 198.40,96.80"/>
    </edge>
    <edge id=":gneJ7_0" function="internal">
        <lane id=":gneJ7_0_0" index="0" speed="3.90" length="2.58" shape="198.40,3.20 198.30,2.50 198.00,2.00 197.50,1.70 196.80,1.60"/>
    </edge>
    <edge id=":gneJ7_1" function="internal">
        <lane id=":gneJ7_1_0" index="0" speed="6.08" length="7.74" shape="196.80,-1.60 198.90,-1.30 200.40,-0.40 201.30,1.10 201.60,3.20"/>
    </edge>

    <edge id="-gneE1" from="gneJ3" to="gneJ2" priority="-1">
        <lane id="-gneE1_0" index="0" speed="13.89" length="93.60" shape="1.60,3.20 1.60,96.80"/>
    </edge>
    <edge id="-gneE2" from="gneJ4" to="gneJ3" priority="-1">
        <lane id="-gneE2_0" index="0" speed="13.89" length="89.60" shape="92.80,1.60 3.20,1.60"/>
    </edge>
    <edge id="-gneE3" from="gneJ5" to="gneJ4" priority="-1">
        <lane id="-gneE3_0" index="0" speed="13.89" length="85.60" shape="98.40,92.80 98.40,7.20"/>
    </edge>
    <edge id="-gneE4" from="gneJ2" to="gneJ5" priority="-1">
        <lane id="-gneE4_0" index="0" speed="13.89" length="89.60" shape="3.20,98.40 92.80,98.40"/>
    </edge>
    <edge id="-gneE5" from="gneJ6" to="gneJ5" priority="-1">
        <lane id="-gneE5_0" index="0" speed="13.89" length="89.60" shape="196.80,101.60 107.20,101.60"/>
    </edge>
    <edge id="-gneE6" from="gneJ7" to="gneJ6" priority="-1">
        <lane id="-gneE6_0" index="0" speed="13.89" length="93.60" shape="201.60,3.20 201.60,96.80"/>
    </edge>
    <edge id="-gneE7" from="gneJ4" to="gneJ7" priority="-1">
        <lane id="-gneE7_0" index="0" speed="13.89" length="89.60" shape="107.20,-1.60 196.80,-1.60"/>
    </edge>
    <edge id="gneE1" from="gneJ2" to="gneJ3" priority="-1">
        <lane id="gneE1_0" index="0" speed="13.89" length="93.60" shape="-1.60,96.80 -1.60,3.20"/>
    </edge>
    <edge id="gneE2" from="gneJ3" to="gneJ4" priority="-1">
        <lane id="gneE2_0" index="0" speed="13.89" length="89.60" shape="3.20,-1.60 92.80,-1.60"/>
    </edge>
    <edge id="gneE3" from="gneJ4" to="gneJ5" priority="-1">
        <lane id="gneE3_0" index="0" speed="13.89" length="85.60" shape="101.60,7.20 101.60,92.80"/>
    </edge>
    <edge id="gneE4" from="gneJ5" to="gneJ2" priority="-1">
        <lane id="gneE4_0" index="0" speed="13.89" length="89.60" shape="92.80,101.60 3.20,101.60"/>
    </edge>
    <edge id="gneE5" from="gneJ5" to="gneJ6" priority="-1">
        <lane id="gneE5_0" index="0" speed="13.89" length="89.60" shape="107.20,98.40 196.80,98.40"/>
    </edge>
    <edge id="gneE6" from="gneJ6" to="gneJ7" priority="-1">
        <lane id="gneE6_0" index="0" speed="13.89" length="93.60" shape="198.40,96.80 198.40,3.20"/>
    </edge>
    <edge id="gneE7" from="gneJ7" to="gneJ4" priority="-1">
        <lane id="gneE7_0" index="0" speed="13.89" length="89.60" shape="196.80,1.60 107.20,1.60"/>
    </edge>

    <junction id="gneJ2" type="priority" x="0.00" y="100.00" incLanes="gneE4_0 -gneE1_0" intLanes=":gneJ2_0_0 :gneJ2_1_0" shape="3.20,103.20 3.20,96.80 -3.20,96.80 -2.49,100.36 -1.60,101.60 -0.36,102.49 1.24,103.02">
        <request index="0" response="00" foes="00" cont="0"/>
        <request index="1" response="00" foes="00" cont="0"/>
    </junction>
    <junction id="gneJ3" type="priority" x="0.00" y="0.00" incLanes="gneE1_0 -gneE2_0" intLanes=":gneJ3_0_0 :gneJ3_1_0" shape="-3.20,3.20 3.20,3.20 3.20,-3.20 -0.36,-2.49 -1.60,-1.60 -2.49,-0.36 -3.02,1.24">
        <request index="0" response="00" foes="00" cont="0"/>
        <request index="1" response="00" foes="00" cont="0"/>
    </junction>
    <junction id="gneJ4" type="priority" x="100.00" y="0.00" incLanes="-gneE3_0 gneE7_0 gneE2_0" intLanes=":gneJ4_0_0 :gneJ4_1_0 :gneJ4_2_0 :gneJ4_3_0 :gneJ4_4_0 :gneJ4_6_0" shape="96.80,7.20 103.20,7.20 103.64,4.98 104.20,4.20 104.98,3.64 105.98,3.31 107.20,3.20 107.20,-3.20 92.80,-3.20 92.80,3.20 95.02,3.64 95.80,4.20 96.36,4.98 96.69,5.98">
        <request index="0" response="001000" foes="001000" cont="0"/>
        <request index="1" response="111000" foes="111000" cont="0"/>
        <request index="2" response="000000" foes="100000" cont="0"/>
        <request index="3" response="000000" foes="100011" cont="0"/>
        <request index="4" response="000000" foes="000010" cont="0"/>
        <request index="5" response="001100" foes="001110" cont="1"/>
    </junction>
    <junction id="gneJ5" type="priority" x="100.00" y="100.00" incLanes="-gneE5_0 gneE3_0 -gneE4_0" intLanes=":gneJ5_0_0 :gneJ5_6_0 :gneJ5_2_0 :gneJ5_3_0 :gneJ5_4_0 :gneJ5_5_0" shape="107.20,103.20 107.20,96.80 104.98,96.36 104.20,95.80 103.64,95.02 103.31,94.02 103.20,92.80 96.80,92.80 96.36,95.02 95.80,95.80 95.02,96.36 94.02,96.69 92.80,96.80 92.80,103.20">
        <request index="0" response="000000" foes="001000" cont="0"/>
        <request index="1" response="110000" foes="111000" cont="1"/>
        <request index="2" response="100000" foes="100000" cont="0"/>
        <request index="3" response="100011" foes="100011" cont="0"/>
        <request index="4" response="000000" foes="000010" cont="0"/>
        <request index="5" response="000000" foes="001110" cont="0"/>
    </junction>
    <junction id="gneJ6" type="priority" x="200.00" y="100.00" incLanes="-gneE6_0 gneE5_0" intLanes=":gneJ6_0_0 :gneJ6_1_0" shape="203.20,96.80 196.80,96.80 196.80,103.20 200.36,102.49 201.60,101.60 202.49,100.36 203.02,98.76">
        <request index="0" response="00" foes="00" cont="0"/>
        <request index="1" response="00" foes="00" cont="0"/>
    </junction>
    <junction id="gneJ7" type="priority" x="200.00" y="0.00" incLanes="gneE6_0 -gneE7_0" intLanes=":gneJ7_0_0 :gneJ7_1_0" shape="196.80,3.20 203.20,3.20 202.49,-0.36 201.60,-1.60 200.36,-2.49 198.76,-3.02 196.80,-3.20">
        <request index="0" response="00" foes="00" cont="0"/>
        <request index="1" response="00" foes="00" cont="0"/>
    </junction>

    <junction id=":gneJ4_6_0" type="internal" x="98.40" y="0.00" incLanes=":gneJ4_5_0 gneE7_0" intLanes=":gneJ4_1_0 :gneJ4_2_0 :gneJ4_3_0"/>
    <junction id=":gneJ5_6_0" type="internal" x="101.60" y="100.00" incLanes=":gneJ5_1_0 -gneE4_0" intLanes=":gneJ5_3_0 :gneJ5_4_0 :gneJ5_5_0"/>

    <connection from="-gneE1" to="-gneE4" fromLane="0" toLane="0" via=":gneJ2_1_0" dir="r" state="M"/>
    <connection from="-gneE2" to="-gneE1" fromLane="0" toLane="0" via=":gneJ3_1_0" dir="r" state="M"/>
    <connection from="-gneE3" to="-gneE2" fromLane="0" toLane="0" via=":gneJ4_0_0" dir="r" state="m"/>
    <connection from="-gneE3" to="-gneE7" fromLane="0" toLane="0" via=":gneJ4_1_0" dir="l" state="m"/>
    <connection from="-gneE4" to="-gneE3" fromLane="0" toLane="0" via=":gneJ5_4_0" dir="r" state="M"/>
    <connection from="-gneE4" to="gneE5" fromLane="0" toLane="0" via=":gneJ5_5_0" dir="s" state="M"/>
    <connection from="-gneE5" to="gneE4" fromLane="0" toLane="0" via=":gneJ5_0_0" dir="s" state="M"/>
    <connection from="-gneE5" to="-gneE3" fromLane="0" toLane="0" via=":gneJ5_1_0" dir="l" state="m"/>
    <connection from="-gneE6" to="-gneE5" fromLane="0" toLane="0" via=":gneJ6_0_0" dir="l" state="M"/>
    <connection from="-gneE7" to="-gneE6" fromLane="0" toLane="0" via=":gneJ7_1_0" dir="l" state="M"/>
    <connection from="gneE1" to="gneE2" fromLane="0" toLane="0" via=":gneJ3_0_0" dir="l" state="M"/>
    <connection from="gneE2" to="-gneE7" fromLane="0" toLane="0" via=":gneJ4_4_0" dir="s" state="M"/>
    <connection from="gneE2" to="gneE3" fromLane="0" toLane="0" via=":gneJ4_5_0" dir="l" state="m"/>
    <connection from="gneE3" to="gneE5" fromLane="0" toLane="0" via=":gneJ5_2_0" dir="r" state="m"/>
    <connection from="gneE3" to="gneE4" fromLane="0" toLane="0" via=":gneJ5_3_0" dir="l" state="m"/>
    <connection from="gneE4" to="gneE1" fromLane="0" toLane="0" via=":gneJ2_0_0" dir="l" state="M"/>
    <connection from="gneE5" to="gneE6" fromLane="0" toLane="0" via=":gneJ6_1_0" dir="r" state="M"/>
    <connection from="gneE6" to="gneE7" fromLane="0" toLane="0" via=":gneJ7_0_0" dir="r" state="M"/>
    <connection from="gneE7" to="gneE3" fromLane="0" toLane="0" via=":gneJ4_2_0" dir="r" state="M"/>
    <connection from="gneE7" to="-gneE2" fromLane="0" toLane="0" via=":gneJ4_3_0" dir="s" state="M"/>

    <connection from=":gneJ2_0" to="gneE1" fromLane="0" toLane="0" dir="l" state="M"/>
    <connection from=":gneJ2_1" to="-gneE4" fromLane="0" toLane="0" dir="r" state="M"/>
    <connection from=":gneJ3_0" to="gneE2" fromLane="0" toLane="0" dir="l" state="M"/>
    <connection from=":gneJ3_1" to="-gneE1" fromLane="0" toLane="0" dir="r" state="M"/>
    <connection from=":gneJ4_0" to="-gneE2" fromLane="0" toLane="0" dir="r" state="M"/>
    <connection from=":gneJ4_1" to="-gneE7" fromLane="0" toLane="0" dir="l" state="M"/>
    <connection from=":gneJ4_2" to="gneE3" fromLane="0" toLane="0" dir="r" state="M"/>
    <connection from=":gneJ4_3" to="-gneE2" fromLane="0" toLane="0" dir="s" state="M"/>
    <connection from=":gneJ4_4" to="-gneE7" fromLane="0" toLane="0" dir="s" state="M"/>
    <connection from=":gneJ4_5" to="gneE3" fromLane="0" toLane="0" via=":gneJ4_6_0" dir="l" state="m"/>
    <connection from=":gneJ4_6" to="gneE3" fromLane="0" toLane="0" dir="l" state="M"/>
    <connection from=":gneJ5_0" to="gneE4" fromLane="0" toLane="0" dir="s" state="M"/>
    <connection from=":gneJ5_1" to="-gneE3" fromLane="0" toLane="0" via=":gneJ5_6_0" dir="l" state="m"/>
    <connection from=":gneJ5_6" to="-gneE3" fromLane="0" toLane="0" dir="l" state="M"/>
    <connection from=":gneJ5_2" to="gneE5" fromLane="0" toLane="0" dir="r" state="M"/>
    <connection from=":gneJ5_3" to="gneE4" fromLane="0" toLane="0" dir="l" state="M"/>
    <connection from=":gneJ5_4" to="-gneE3" fromLane="0" toLane="0" dir="r" state="M"/>
    <connection from=":gneJ5_5" to="gneE5" fromLane="0" toLane="0" dir="s" state="M"/>
    <connection from=":gneJ6_0" to="-gneE5" fromLane="0" toLane="0" dir="l" state="M"/>
    <connection from=":gneJ6_1" to="gneE6" fromLane="0" toLane="0" dir="r" state="M"/>
    <connection from=":gneJ7_0" to="gneE7" fromLane="0" toLane="0" dir="r" state="M"/>
    <connection from=":gneJ7_1" to="-gneE6" fromLane="0" toLane="0" dir="l" state="M"/>

</net>
